*GROWTH ASPECTS OUTPUT FILE

*DSSAT Cropping System Model Ver. 4.6.1.000 -release      AUG 23, 2017; 14:09:34
                                                                                
*RUN   1        : P1                        MZCER046 1\000001    1              
 MODEL          : MZCER046 - Maize                                              
 EXPERIMENT     : 1\000001 BN Calibracion Cerete 2013                           
 DATA PATH      : C:\L\0\00000                                                  
 TREATMENT  1   : P1                        MZCER046                            
  
!                                                                                                                                                                                                                                      Root Dens. (cm/cm3) by soil depth (cm):
!                                                                                                                                                                                                                                      0-5    5-15   15-30   30-53   53-77  77-100
@YEAR DOY   DAS   DAP   L#SD   GSTD   LAID   LWAD   SWAD   GWAD   RWAD   VWAD   CWAD   G#AD   GWGD   HIAD   PWAD   P#AD   WSPD   WSGD   NSTD   EWSD  PST1A  PST2A   KSTD   LN%D   SH%D   HIPD   PWDD   PWTD     SLAD   CHTD   CWID   RDPD    RL1D    RL2D    RL3D    RL4D    RL5D    RL6D   CDAD   LDAD   SDAD   SNW0C   SNW1C  DTTD
 2013 105     1     0    0.0      0   0.00      0      0      0      0      0      0      0    0.0  0.000      0      0  0.000  0.000  0.000  0.000  0.000  0.000  0.000   0.00   0.00   0.00      0      0      0.0   0.00   0.00   0.05    0.00    0.00    0.00    0.00    0.00    0.00      0      0      0       0       0 20.95
 2013 106     2     1    0.0      0   0.00      0      0      0      0      0      0      0    0.0  0.000      0      0  0.000  0.000  0.000  0.000  0.000  0.000  0.000   0.00   0.00   0.00      0      0      0.0   0.00   0.00   0.08    0.00    0.00    0.00    0.00    0.00    0.00      0      0      0       0       0 22.14
 2013 107     3     2    0.0      0   0.00      0      0      0      0      0      0      0    0.0  0.000      0      0  0.000  0.000  0.000  0.000  0.000  0.000  0.000   0.00   0.00   0.00      0      0      0.0   0.00   0.00   0.12    0.00    0.00    0.00    0.00    0.00    0.00      0      0      0       0       0 22.43
 2013 108     4     3    0.0      0   0.00      0      0      0      0      0      0      0    0.0  0.000      0      0  0.000  0.000  0.000  0.000  0.000  0.000  0.000   0.00   0.00   0.00      0      0      0.0   0.00   0.00   0.15    0.00    0.00    0.00    0.00    0.00    0.00      0      0      0       0       0 21.50
 2013 109     5     4    0.0      0   0.00      0      0      0      0      0      0      0    0.0  0.000      0      0  0.000  0.000  0.000  0.000  0.000  0.000  0.000   0.00   0.00   0.00      0      0      0.0   0.00   0.00   0.18    0.00    0.00    0.00    0.00    0.00    0.00      0      0      0       0       0 17.84
 2013 110     6     5    2.0      1   0.00     12     12      0     12     25     25      0    0.0  0.000      0      0  0.000  0.000  0.012  0.000  0.000  0.000  0.000   4.40   0.00   0.00      0      0     34.0   0.00   0.00   0.20    0.25    0.12    0.01    0.00    0.00    0.00      0      0      0       0       0 19.69
 2013 111     7     6    2.0      1   0.01     12     12      0     13     25     25      0    0.0  0.000      0      0  0.000  0.000  0.009  0.000  0.000  0.000  0.000   4.40   0.00   0.00      0      0     63.9   0.00   0.00   0.21    0.25    0.13    0.01    0.00    0.00    0.00      0      0      0       0       0 17.24
 2013 112     8     7    3.0      1   0.01     12     12      0     13     25     25      0    0.0  0.000      0      0  0.000  0.000  0.000  0.000  0.000  0.000  0.000   4.40   0.00   0.00      0      0    103.6   0.01   0.00   0.23    0.26    0.13    0.02    0.00    0.00    0.00      0      0      0       0       0 19.74
 2013 113     9     8    3.0      1   0.02     12     12      0     14     25     25      0    0.0  0.000      0      0  0.000  0.000  0.000  0.000  0.000  0.000  0.000   4.40   0.00   0.00      0      0    144.7   0.01   0.00   0.25    0.27    0.14    0.02    0.00    0.00    0.00      0      0      0       0       0 18.50
 2013 114    10     9    4.0      1   0.04     12     12      0     17     25     25      0    0.0  0.000      0      0  0.000  0.000  0.000  0.000  0.000  0.000  0.000   4.40   0.00   0.00      0      0    311.5   0.02   0.00   0.27    0.29    0.16    0.03    0.00    0.00    0.00      0      0      0       0       0 20.61
 2013 115    11    10    4.0      1   0.06     20     12      0     19     33     33      0    0.0  0.000      0      0  0.000  0.000  0.000  0.000  0.000  0.000  0.000   3.33   0.00   0.00      0      0    310.4   0.03   0.00   0.29    0.31    0.18    0.04    0.00    0.00    0.00      0      0      0       0       0 20.85
 2013 116    12    11    5.0      1   0.09     33     12      0     22     46     46      0    0.0  0.000      0      0  0.000  0.000  0.000  0.000  0.000  0.000  0.000   2.91   0.00   0.00      0      0    280.6   0.05   0.00   0.31    0.34    0.20    0.05    0.00    0.00    0.00      0      0      0       0       0 21.66
 2013 117    13    12    6.0      1   0.13     49     12      0     28     62     62      0    0.0  0.000      0      0  0.000  0.000  0.000  0.000  0.000  0.000  0.000   2.96   0.00   0.00      0      0    259.2   0.07   0.00   0.33    0.39    0.24    0.08    0.00    0.00    0.00      0      0      0       0       0 21.04
 2013 118    14    13    6.0      1   0.17     68     12      0     34     80     80      0    0.0  0.000      0      0  0.000  0.000  0.000  0.000  0.000  0.000  0.000   3.00   0.00   0.00      0      0    242.7   0.09   0.00   0.34    0.43    0.29    0.11    0.00    0.00    0.00      0      0      0       0       0 20.51
 2013 119    15    14    6.0      2   0.21     85     12      0     40     97     97      0    0.0  0.000      0      0  0.000  0.000  0.000  0.000  0.000  0.000  0.000   3.17   0.00   0.00      0      0    247.7   0.11   0.00   0.35    0.43    0.35    0.14    0.00    0.00    0.00      0      0      0       0       1 18.72
 2013 120    16    15    7.0      2   0.27    115     12      0     54    127    127      0    0.0  0.000      0      0  0.000  0.000  0.008  0.000  0.000  0.000  0.000   2.98   0.00   0.00      0      0    232.7   0.14   0.00   0.37    0.43    0.49    0.23    0.00    0.00    0.00      0      0      0       0       1 21.05
 2013 121    17    16    7.0      2   0.32    146     12      0     63    159    159      0    0.0  0.000      0      0  0.000  0.000  0.000  0.000  0.000  0.000  0.000   3.08   0.00   0.00      0      0    221.3   0.17   0.00   0.39    0.47    0.56    0.28    0.01    0.00    0.00      0      0      0       0       1 18.42
 2013 122    18    17    8.0      2   0.40    190     12      0     81    203    203      0    0.0  0.000      0      0  0.000  0.000  0.000  0.000  0.000  0.000  0.000   2.97   0.00   0.00      0      0    209.6   0.21   0.00   0.41    0.58    0.68    0.39    0.02    0.00    0.00      0      0      0       0       1 21.54
 2013 123    19    18    8.0      2   0.46    230     12      0     88    242    242      0    0.0  0.000      0      0  0.000  0.000  0.000  0.000  0.000  0.000  0.000   3.78   0.00   0.00      0      0    201.5   0.25   0.00   0.43    0.60    0.71    0.44    0.02    0.00    0.00      0      0      0       0       2 17.34
 2013 124    20    19    9.0      2   0.55    286     12      0    118    298    298      0    0.0  0.000      0      0  0.000  0.000  0.000  0.000  0.000  0.000  0.000   3.73   0.00   0.00      0      0    192.5   0.30   0.00   0.45    0.75    0.83    0.63    0.06    0.00    0.00      0      0      0       0       2 20.68
 2013 125    21    20    9.0      2   0.63    339     12      0    127    352    352      0    0.0  0.000      0      0  0.000  0.000  0.000  0.000  0.000  0.000  0.000   3.69   0.00   0.00      0      0    185.7   0.34   0.00   0.47    0.78    0.87    0.69    0.08    0.00    0.00      0      0      0       0       3 17.55
 2013 126    22    21   10.0      3   0.73    409     13      0    148    421    421      0    0.0  0.000      0      0  0.000  0.000  0.000  0.000  0.000  0.000  0.000   3.61   0.00   0.00      0      0    178.3   0.39   0.00   0.49    0.86    0.95    0.82    0.12    0.00    0.00      0      0      0       0       3 20.01
 2013 127    23    22   10.0      3   0.81    465     13      0    150    478    478      0    0.0  0.000      0      0  0.000  0.000  0.000  0.000  0.000  0.000  0.000   3.55   0.00   0.00      0      0    174.3   0.44   0.00   0.50    0.87    0.96    0.84    0.12    0.00    0.00      0      0      0       0       4 15.70
 2013 128    24    23   10.0      3   0.93    548     16      0    178    564    564      0    0.0  0.000      0      0  0.000  0.000  0.000  0.000  0.000  0.000  0.000   3.49   0.00   0.00      0      0    169.2   0.50   0.00   0.52    0.97    1.05    1.00    0.19    0.00    0.00      0      0      0       0       5 19.24
 2013 129    25    24   11.0      3   1.05    638     21      0    189    659    659      0    0.0  0.000      0      0  0.000  0.000  0.000  0.000  0.000  0.000  0.000   3.43   0.00   0.00      0      0    164.5   0.57   0.00   0.54    1.01    1.08    1.05    0.23    0.00    0.00      0      0      0       0       6 18.75
 2013 130    26    25   11.0      3   1.19    742     30      0    242    772    772      0    0.0  0.000      0      0  0.000  0.000  0.000  0.000  0.000  0.000  0.000   3.38   0.00   0.00      0      0    159.9   0.64   0.00   0.56    2.01    1.14    1.18    0.33    0.02    0.00      0      0      0       0       7 19.25
 2013 131    27    26   12.0      3   1.36    874     47      0    254    921    921      0    0.0  0.000      0      0  0.000  0.000  0.000  0.000  0.000  0.000  0.000   3.32   0.00   0.00      0      0    155.1   0.73   0.00   0.59    2.27    1.14    1.21    0.35    0.02    0.00      0      0      0       0       8 19.80
 2013 132    28    27   12.0      3   1.52   1011     71      0    287   1082   1082      0    0.0  0.000      0      0  0.000  0.000  0.000  0.000  0.000  0.000  0.000   3.26   0.00   0.00      0      0    150.9   0.82   0.00   0.61    2.71    1.40    1.23    0.39    0.04    0.00      0      0      0       0       9 19.80
 2013 133    29    28   13.0      3   1.69   1143    102      0    296   1245   1245      0    0.0  0.000      0      0  0.000  0.000  0.000  0.000  0.000  0.000  0.000   3.21   0.00   0.00      0      0    147.4   0.91   0.00   0.63    2.81    1.49    1.25    0.39    0.04    0.00      0      0      0       0      11 18.70
 2013 134    30    29   13.0      3   1.86   1289    145      0    322   1434   1434      0    0.0  0.000      0      0  0.000  0.000  0.000  0.000  0.000  0.000  0.000   3.16   0.00   0.00      0      0    144.0   1.00   0.00   0.65    3.05    1.71    1.31    0.41    0.05    0.00      0      0      0       0      12 20.05
 2013 135    31    30   14.0      3   1.99   1405    187      0    329   1592   1592      0    0.0  0.000      0      0  0.000  0.000  0.000  0.000  0.000  0.000  0.000   3.11   0.00   0.00      0      0    141.7   1.07   0.00   0.66    3.09    1.76    1.34    0.41    0.06    0.00      0      0      0       0      14 17.55
 2013 136    32    31   14.0      3   2.16   1555    253      0    356   1808   1808      0    0.0  0.000      0      0  0.000  0.000  0.000  0.000  0.000  0.000  0.000   3.06   0.00   0.00      0      0    138.9   1.16   0.00   0.69    3.24    1.95    1.46    0.43    0.08    0.00      0      0      0       0      15 19.85
 2013 137    33    32   15.0      3   2.25   1637    295      0    361   1932   1932      0    0.0  0.000      0      0  0.000  0.000  0.000  0.000  0.000  0.000  0.000   3.01   0.00   0.00      0      0    137.6   1.21   0.00   0.70    3.26    1.98    1.48    0.44    0.08    0.00      0      0      0       0      17 17.05
 2013 138    34    33   15.0      3   2.42   1786    385      0    428   2171   2171      0    0.0  0.000      0      0  0.000  0.000  0.000  0.000  0.000  0.000  0.000   2.96   0.00   0.00      0      0    135.3   1.30   0.00   0.72    3.52    2.41    1.81    0.50    0.13    0.00      0      0      0       0      19 19.10
 2013 139    35    34   15.0      3   2.52   1886    455      0    436   2341   2341      0    0.0  0.000      0      0  0.000  0.000  0.000  0.000  0.000  0.000  0.000   2.92   0.00   0.00      0      0    133.8   1.36   0.00   0.74    3.54    2.45    1.84    0.50    0.14    0.00      0      0      0       0      21 17.35
 2013 140    36    35   16.0      3   2.68   2032    571      0    490   2603   2603      0    0.0  0.000      0      0  0.000  0.000  0.000  0.000  0.000  0.000  0.000   2.87   0.00   0.00      0      0    131.9   1.44   0.00   0.76    3.75    2.77    2.08    0.56    0.20    0.00      0      0      0       0      23 18.20
 2013 141    37    36   16.0      3   2.79   2135    663      0    499   2798   2798      0    0.0  0.000      0      0  0.000  0.000  0.000  0.000  0.000  0.000  0.000   2.83   0.00   0.00      0      0    130.7   1.50   0.00   0.78    3.75    2.82    2.12    0.57    0.22    0.00      0      0      0       0      26 17.30
 2013 142    38    37   17.0      3   3.05   2382    694      0    512   3076   3076      0    0.0  0.000      0      0  0.000  0.000  0.000  0.000  0.000  0.000  0.000   2.78   0.00   0.00      0      0    127.9   1.60   0.00   0.80    3.73    2.87    2.18    0.59    0.24    0.00      0      0      0       0      28 19.10
 2013 143    39    38   17.0      3   3.17   2505    816      0    523   3321   3324      0    0.0  0.000      2      0  0.000  0.000  0.000  0.000  0.000  0.000  0.000   2.72   0.00   0.00      0      2    126.7   1.60   0.00   0.82    3.72    2.86    2.21    0.62    0.28    0.02      0      0      0       0      31 16.45
 2013 144    40    39   17.0      3   3.28   2607    960      0    534   3567   3573      0    0.0  0.000      5      0  0.000  0.000  0.000  0.000  0.000  0.000  0.000   2.63   0.00   0.00      0      5    125.7   1.60   0.00   0.83    3.71    2.85    2.21    0.64    0.33    0.04      0      0      0       0      33 18.00
 2013 145    41    40   18.0      3   3.40   2732   1173      0    551   3905   3920      0    0.0  0.000     15      0  0.000  0.000  0.000  0.000  0.000  0.000  0.000   2.47   0.00   0.00      0     15    124.5   1.60   0.00   0.85    3.71    2.85    2.21    0.67    0.39    0.09      0      0      0       0      36 18.90
 2013 146    42    41   18.0      3   3.48   2807   1318      0    561   4125   4146      0    0.0  0.000     22      0  0.000  0.000  0.000  0.000  0.000  0.000  0.000   2.40   0.00   0.01      0     22    123.9   1.60   0.00   0.87    3.70    2.85    2.21    0.68    0.43    0.13      0      0      0       0      39 16.75
 2013 147    43    42   19.0      3   3.57   2905   1523      0    576   4428   4468      0    0.0  0.000     39      0  0.000  0.000  0.009  0.000  0.000  0.000  0.000   2.28   0.00   0.01      0     39    122.9   1.60   0.00   0.89    3.70    2.86    2.23    0.68    0.46    0.21      0      0      0       0      42 19.20
 2013 148    44    43   19.0      3   3.64   2986   1704      0    589   4690   4750      0    0.0  0.000     60      0  0.000  0.000  0.018  0.000  0.000  0.000  0.000   2.19   0.00   0.01      0     60    122.0   1.60   0.00   0.91    3.71    2.87    2.24    0.68    0.48    0.28      0      0      0       0      44 19.15
 2013 149    45    44   20.0      3   3.71   3070   1886      0    617   4956   5056      0    0.0  0.000    100      0  0.000  0.000  0.035  0.000  0.000  0.000  0.000   2.11   0.00   0.02      0    100    120.8   1.60   0.00   0.93    3.75    2.91    2.28    0.69    0.49    0.44      0      0      0       0      47 18.00
 2013 150    46    45   20.0      3   3.75   3140   2045      0    629   5185   5326      0    0.0  0.000    142      0  0.000  0.000  0.046  0.000  0.000  0.000  0.000   2.22   0.00   0.03      0    142    119.6   1.60   0.00   0.95    4.00    2.90    2.28    0.69    0.49    0.45      0      0      0       0      51 18.30
 2013 151    47    46   20.0      3   3.82   3213   2205      0    642   5419   5620      0    0.0  0.000    202      0  0.000  0.000  0.019  0.000  0.000  0.000  0.000   2.36   0.00   0.04      0    202    118.8   1.60   0.00   0.97    4.00    2.89    2.27    0.69    0.49    0.45      0      0      0       0      54 18.60
 2013 152    48    47   20.0      3   3.90   3298   2356      0    668   5654   5960      0    0.0  0.000    306      0  0.000  0.000  0.000  0.000  0.000  0.000  0.000   2.42   0.00   0.05      0    306    118.2   1.60   0.00   0.99    4.00    2.89    2.27    0.69    0.49    0.46      0      0      0       0      57 18.75
 2013 153    49    48   20.0      3   3.98   3381   2469      0    701   5850   6290      0    0.0  0.000    439      0  0.000  0.000  0.000  0.000  0.000  0.000  0.000   2.39   0.00   0.07      0    439    117.7   1.60   0.00   1.00    4.00    3.04    2.27    0.69    0.49    0.47      0      0      0       0      60 18.20
 2013 154    50    49   20.0      3   4.05   3454   2571      0    713   6025   6578      0    0.0  0.000    553      0  0.000  0.000  0.000  0.000  0.000  0.000  0.000   2.35   0.00   0.08      0    553    117.2   1.60   0.00   1.00    4.00    3.13    2.26    0.68    0.49    0.47      0      0      0       0      64 18.05
 2013 155    51    50   20.0      3   4.13   3538   2640      0    731   6178   6910      0    0.0  0.000    732      0  0.000  0.000  0.000  0.000  0.000  0.000  0.000   2.33   0.00   0.11      0    732    116.7   1.60   0.00   1.00    4.00    3.28    2.25    0.68    0.49    0.47      0      0      0       0      67 18.30
 2013 156    52    51   20.0      3   4.20   3623   2658      0    773   6281   7247      0    0.0  0.000    966      0  0.000  0.000  0.000  0.000  0.000  0.000  0.000   2.32   0.00   0.13      0    966    116.0   1.60   0.00   1.00    4.00    3.62    2.25    0.68    0.49    0.47      0      0      0       0      71 18.50
 2013 157    53    52   20.0      4   4.06   3585   2757      0    781   6342   7498      0    0.0  0.000   1156      0  0.000  0.000  0.000  0.000  0.000  0.000  0.000   2.29   0.00   0.15      0   1156    113.2   1.60   0.00   1.00    4.00    3.70    2.24    0.68    0.48    0.46      0      0      0       0      71 17.90
 2013 158    54    53   20.0      4   4.04   3544   2860      0    793   6403   7815      0    0.0  0.000   1411      0  0.000  0.000  0.000  0.000  0.000  0.000  0.000   2.27   0.00   0.18      0   1411    114.0   1.60   0.00   1.00    4.00    3.81    2.23    0.67    0.48    0.46      0      0      0       0      71 18.05
 2013 159    55    54   20.0      4   4.02   3499   2949      0    805   6448   8137      0    0.0  0.000   1689      0  0.000  0.000  0.000  0.000  0.000  0.000  0.000   2.26   0.00   0.21      0   1689    114.9   1.60   0.00   1.00    4.00    3.93    2.23    0.67    0.48    0.46      0      0      0       0      71 17.95
 2013 160    56    55   20.0      4   4.00   3451   3026      0    817   6477   8457      0    0.0  0.000   1980      0  0.000  0.000  0.000  0.000  0.000  0.000  0.000   2.25   0.00   0.23      0   1980    115.9   1.60   0.00   1.00    4.00    4.00    2.22    0.67    0.48    0.46      0      0      0       0      71 19.00
 2013 161    57    56   20.0      4   3.98   3399   3077      0    825   6477   8685      0    0.0  0.000   2208      0  0.000  0.000  0.000  0.000  0.000  0.000  0.000   2.25   0.00   0.25      0   2208    117.1   1.60   0.00   1.00    4.00    4.00    2.21    0.66    0.47    0.46      0      0      0       0      71 18.50
 2013 162    58    57   20.0      4   3.96   3345   3125      0    833   6470   8918      0    0.0  0.000   2449      0  0.000  0.000  0.000  0.000  0.000  0.000  0.000   2.25   0.00   0.27      0   2449    118.4   1.60   0.00   1.00    4.00    4.00    2.21    0.66    0.47    0.46      0      0      0       0      71 18.25
 2013 163    59    58   20.0      4   3.93   3287   3282      0    843   6569   9169      0    0.0  0.000   2600      0  0.134  0.423  0.000  0.000  0.000  0.000  0.000   2.21   0.00   0.28      0   2600    119.7   1.60   0.00   1.00    4.00    4.00    2.20    0.66    0.47    0.46      0      0      0       0      71 18.60
 2013 164    60    59   20.0      4   3.92   3225   3335      0    855   6561   9484      0    0.0  0.000   2924      0  0.000  0.000  0.000  0.000  0.000  0.000  0.000   2.22   0.00   0.31      0   2924    121.5   1.60   0.00   1.00    4.00    4.00    2.19    0.66    0.47    0.45      0      0      0       0      71 19.80
 2013 165    61    60   20.0      4   3.82   3160   3473      0    859   6633   9615      0    0.0  0.000   2982      0  0.484  0.657  0.000  0.000  0.000  0.000  0.000   2.19   0.00   0.31      0   2982    121.0   1.60   0.00   1.00    4.00    4.00    2.18    0.65    0.47    0.45      0      0      0       0      71 19.25
 2013 166    62    61   20.0      5   3.72   3160   3473    118    866   6633   9733   2732    4.3  0.012   3100      6  0.548  0.699  0.000  0.000  0.000  0.000  0.000   2.16   3.80   0.32      0   3100    117.7   1.60   0.00   1.00    3.98    4.00    2.18    0.65    0.47    0.45      0      0      0       0      71 19.40
 2013 167    63    62   20.0      5   3.59   3160   3473    209    872   6633   9823   2732    7.6  0.021   3190      6  0.682  0.789  0.000  0.000  0.000  0.000  0.000   2.13   6.54   0.32      0   3190    113.7   1.60   0.00   1.00    3.96    4.00    2.17    0.65    0.47    0.46      0      0      0       0      71 20.45
 2013 168    64    63   20.0      5   3.47   3160   3473    299    873   6633   9914   2732   11.0  0.030   3281      6  0.692  0.795  0.000  0.000  0.000  0.000  0.000   2.11   9.13   0.33      0   3281    109.8   1.60   0.00   1.00    3.94    4.00    2.16    0.65    0.47    0.46      0      0      0       0      71 20.40
 2013 169    65    64   20.0      5   3.34   3160   3473    392    870   6633  10007   2732   14.4  0.039   3374      6  0.742  0.829  0.000  0.000  0.000  0.000  0.000   2.08  11.62   0.34      0   3374    105.7   1.60   0.00   1.00    3.92    4.00    2.16    0.64    0.46    0.45      0      0      0       0      71 19.95
 2013 170    66    65   20.0      5   3.22   3160   3459    493    866   6620  10094   2732   18.0  0.049   3475      6  0.696  0.798  0.000  0.000  0.000  0.000  0.000   2.06  14.18   0.34      0   3475    102.0   1.60   0.00   1.00    3.92    4.00    2.16    0.64    0.46    0.45      0      0      0       0      71 19.65
 2013 171    67    66   20.0      5   3.10   3160   3449    582    861   6609  10173   2732   21.3  0.057   3564      6  0.791  0.861  0.000  0.000  0.000  0.000  0.000   2.04  16.33   0.35      0   3564     98.0   1.60   0.00   1.00    3.92    4.00    2.16    0.64    0.46    0.45      0      0      0       0      71 19.90
 2013 172    68    67   20.0      5   2.97   3160   3421    675    857   6581  10237   2732   24.7  0.066   3657      6  0.836  0.891  0.000  0.000  0.000  0.000  0.000   2.02  18.45   0.36      0   3657     93.9   1.60   0.00   1.00    3.92    4.00    2.16    0.64    0.46    0.45      0      0      0       0      71 19.25
 2013 173    69    68   20.0      5   2.85   3160   3392    763    853   6552  10296   2732   27.9  0.074   3745      6  0.817  0.879  0.000  0.000  0.000  0.000  0.000   2.00  20.37   0.36      0   3745     90.0   1.60   0.00   1.00    3.92    4.00    2.16    0.64    0.46    0.45      0      0      0       0      71 19.80
 2013 174    70    69   20.0      5   2.73   3160   3360    848    848   6520  10350   2732   31.0  0.082   3830      6  0.811  0.875  0.000  0.000  0.000  0.000  0.000   1.99  22.14   0.37      0   3830     86.4   1.60   0.00   1.00    3.92    4.00    2.16    0.64    0.46    0.45      0      0      0       0      71 20.05
 2013 175    71    70   20.0      5   2.62   3160   3326    933    844   6486  10401   2732   34.2  0.090   3915      6  0.836  0.891  0.000  0.000  0.000  0.000  0.000   1.97  23.84   0.38      0   3915     82.8   1.60   0.00   1.00    3.92    4.00    2.16    0.64    0.46    0.45      0      0      0       0      71 19.90
 2013 176    72    71   20.0      5   2.50   3160   3292   1013    840   6452  10448   2732   37.1  0.097   3995      6  0.880  0.920  0.000  0.000  0.000  0.000  0.000   1.96  25.37   0.38      0   3995     79.1   1.60   0.00   1.00    3.92    4.00    2.16    0.64    0.46    0.45      0      0      0       0      71 20.00
 2013 177    73    72   20.0      5   2.39   3160   3268   1085    836   6428  10495   2732   39.7  0.103   4067      6  0.860  0.907  0.000  0.000  0.000  0.000  0.000   1.95  26.68   0.39      0   4067     75.7   1.60   0.00   1.00    3.92    4.00    2.16    0.64    0.46    0.45      0      0      0       0      71 20.83
 2013 178    74    73   20.0      5   2.29   3160   3244   1148    832   6404  10535   2732   42.0  0.109   4130      6  0.870  0.914  0.000  0.000  0.000  0.000  0.000   1.93  27.81   0.39      0   4130     72.4   1.60   0.00   1.00    3.92    4.00    2.16    0.64    0.46    0.45      0      0      0       0      71 21.43
 2013 179    75    74   20.0      5   2.19   3160   3206   1231    827   6366  10580   2732   45.1  0.116   4213      6  0.860  0.907  0.000  0.000  0.000  0.000  0.000   1.92  29.23   0.40      0   4213     69.3   1.60   0.00   1.00    3.92    4.00    2.16    0.64    0.46    0.45      0      0      0       0      71 19.90
 2013 180    76    75   20.0      5   2.17   3160   3272   1363    856   6432  10777   2732   49.9  0.126   4345      6  0.234  0.490  0.000  0.000  0.000  0.000  0.000   1.86  31.37   0.40      0   4345     68.5   1.60   0.00   1.00    3.90    3.98    2.28    0.68    0.50    0.57      0      0      0       0      71 20.20
 2013 181    77    76   20.0      5   2.08   3160   3213   1462    852   6374  10818   2732   53.5  0.135   4444      6  0.802  0.869  0.000  0.000  0.000  0.000  0.000   1.85  32.90   0.41      0   4444     65.8   1.60   0.00   1.00    3.90    3.98    2.28    0.68    0.50    0.57      0      0      0       0      71 18.00
 2013 182    78    77   20.0      5   2.08   3160   3255   1640    869   6416  11037   2732   60.0  0.149   4622      6  0.000  0.000  0.000  0.000  0.000  0.000  0.000   1.79  35.48   0.42      0   4622     65.8   1.60   0.00   1.00    3.97    4.00    2.36    0.68    0.49    0.57      0      0      0       0      71 18.20
 2013 183    79    78   20.0      5   2.08   3160   3342   1817    907   6502  11301   2732   66.5  0.161   4799      6  0.000  0.000  0.000  0.000  0.000  0.000  0.000   1.72  37.87   0.42      0   4799     65.8   1.60   0.00   1.00    4.00    4.00    2.52    0.69    0.49    0.57      0      0      0       0      71 17.55
 2013 184    80    79   20.0      5   2.08   3160   3422   1995    943   6582  11558   2732   73.0  0.173   4977      6  0.000  0.000  0.000  0.000  0.000  0.000  0.000   1.65  40.08   0.43      0   4977     65.8   1.60   0.00   1.00    4.00    4.00    2.68    0.70    0.49    0.57      0      0      0       0      71 18.95
 2013 185    81    80   20.0      5   2.08   3160   3473   2172    969   6633  11787   2732   79.5  0.184   5154      6  0.000  0.000  0.000  0.000  0.000  0.000  0.000   1.59  42.15   0.44      0   5154     65.8   1.60   0.00   1.00    4.00    4.00    2.79    0.70    0.49    0.57      0      0      0       0      71 18.90
 2013 186    82    81   20.0      5   2.08   3160   3473   2350    990   6633  11965   2732   86.0  0.196   5332      6  0.000  0.000  0.000  0.000  0.000  0.000  0.000   1.55  44.08   0.45      0   5332     65.8   1.60   0.00   1.00    4.00    4.00    2.89    0.71    0.49    0.57      0      0      0       0      71 17.50
 2013 187    83    82   20.0      5   2.08   3160   3473   2512   1032   6633  12127   2732   92.0  0.207   5494      6  0.000  0.000  0.000  0.000  0.000  0.000  0.000   1.51  45.73   0.45      0   5494     65.8   1.60   0.00   1.00    4.00    4.00    3.11    0.72    0.49    0.58      0      0      0       0      71 19.70
 2013 188    84    83   20.0      5   2.08   3160   3473   2690   1070   6633  12304   2732   98.5  0.219   5671      6  0.000  0.000  0.000  0.000  0.000  0.000  0.000   1.46  47.42   0.46      0   5671     65.8   1.60   0.00   1.00    4.00    4.00    3.30    0.73    0.49    0.58      0      0      0       0      71 18.40
 2013 189    85    84   20.0      5   2.08   3160   3473   2865   1110   6633  12480   2732  104.9  0.230   5847      6  0.000  0.000  0.000  0.000  0.000  0.000  0.000   1.41  49.00   0.47      0   5847     65.8   1.60   0.00   1.00    4.00    4.00    3.50    0.74    0.49    0.58      0      0      0       0      71 19.10
 2013 190    86    85   20.0      5   2.08   3160   3473   3043   1137   6633  12657   2732  111.4  0.240   6024      6  0.000  0.000  0.000  0.000  0.000  0.000  0.000   1.37  50.50   0.48      0   6024     65.8   1.60   0.00   1.00    4.00    4.00    3.64    0.74    0.48    0.58      0      0      0       0      71 18.65
 2013 191    87    86   20.0      5   2.08   3160   3473   3220   1144   6633  12835   2732  117.9  0.251   6202      6  0.000  0.000  0.000  0.000  0.000  0.000  0.000   1.32  51.92   0.48      0   6202     65.8   1.60   0.00   1.00    3.99    4.00    3.68    0.74    0.48    0.58      0      0      0       0      71 17.65
 2013 192    88    87   20.0      5   2.08   3160   3473   3398   1174   6633  13012   2732  124.4  0.261   6380      6  0.000  0.191  0.000  0.000  0.000  0.000  0.000   1.27  53.26   0.49      0   6380     65.8   1.60   0.00   1.00    3.97    4.00    3.86    0.75    0.48    0.58      0      0      0       0      71 18.50
 2013 193    89    88   20.0      5   2.05   3160   3473   3543   1187   6633  13158   2732  129.7  0.269   6525      6  0.301  0.534  0.000  0.000  0.000  0.000  0.000   1.23  54.30   0.50      0   6525     64.8   1.60   0.00   1.00    3.95    4.00    3.95    0.75    0.48    0.58      0      0      0       0      71 19.15
 2013 194    90    89   20.0      5   2.00   3160   3473   3666   1189   6633  13280   2732  134.2  0.276   6647      6  0.508  0.673  0.000  0.000  0.000  0.000  0.000   1.20  55.14   0.50      0   6647     63.1   1.60   0.00   1.00    3.93    4.00    3.98    0.75    0.48    0.58      0      0      0       0      71 19.35
 2013 195    91    90   20.0      5   1.93   3160   3473   3759   1189   6633  13374   2732  137.6  0.281   6741      6  0.663  0.776  0.000  0.000  0.000  0.000  0.000   1.17  55.77   0.50      0   6741     61.0   1.60   0.00   1.00    3.91    4.00    4.00    0.75    0.47    0.58      0      0      0       0      71 20.33
 2013 196    92    91   20.0      5   1.88   3160   3447   3887   1183   6607  13476   2732  142.3  0.288   6869      6  0.513  0.676  0.000  0.000  0.000  0.000  0.000   1.14  56.59   0.51      0   6869     59.5   1.60   0.00   1.00    3.91    4.00    4.00    0.75    0.47    0.58      0      0      0       0      71 18.95
 2013 197    93    92   20.0      5   1.82   3160   3422   3998   1177   6583  13562   2732  146.3  0.295   6980      6  0.657  0.772  0.000  0.000  0.000  0.000  0.000   1.11  57.28   0.51      0   6980     57.5   1.60   0.00   1.00    3.91    4.00    4.00    0.75    0.47    0.58      0      0      0       0      71 19.15
 2013 198    94    93   20.0      5   1.75   3160   3408   4087   1171   6568  13637   2732  149.6  0.300   7069      6  0.770  0.847  0.000  0.000  0.000  0.000  0.000   1.04  57.82   0.52      0   7069     55.3   1.60   0.00   1.00    3.91    4.00    4.00    0.75    0.47    0.58      0      0      0       0      77 19.99
 2013 199    95    94   20.0      5   1.68   3160   3370   4194   1166   6530  13706   2732  153.5  0.306   7176      6  0.725  0.817  0.000  0.000  0.000  0.000  0.000   1.02  58.45   0.52      0   7176     53.3   1.60   0.00   1.00    3.91    4.00    4.00    0.75    0.47    0.58      0      0      0       0      77 18.70
 2013 200    96    95   20.0      5   1.68   3160   3370   4194   1166   6530  13706   2732  153.5  0.306   7176      6  0.585  0.724  0.000  0.000  0.000  0.000  0.000   1.02  58.45   0.52      0   7176     53.3   1.60   0.00   1.00    3.91    4.00    4.00    0.75    0.47    0.58      0      0      0       0      77 18.00
 2013 201    97    96   20.0      5   1.68   3160   3370   4194   1166   6530  13706   2732  153.5  0.306   7176      6  0.744  0.830  0.000  0.000  0.000  0.000  0.000   1.02  58.45   0.52      0   7176     53.3   1.60   0.00   1.00    3.91    4.00    4.00    0.75    0.47    0.58      0      0      0       0      77 19.25
 2013 202    98    97   20.0      5   1.68   3160   3370   4194   1166   6530  13706   2732  153.5  0.306   7176      6  0.000  0.830  0.000  0.000  0.000  0.000  0.000   1.02  58.45   0.52      0   7176     53.3   1.60   0.00   1.00    3.91    4.00    4.00    0.75    0.47    0.58      0      0      0       0      77  0.00
 2013 203    99    98   20.0      5   1.68   3160   3370   4194   1166   6530  13706   2732  153.5  0.306   7176      6  0.000  0.830  0.000  0.000  0.000  0.000  0.000   1.02  58.45   0.52      0   7176     53.3   1.60   0.00   1.00    3.91    4.00    4.00    0.75    0.47    0.58      0      0      0       0      77 20.67

*DSSAT Cropping System Model Ver. 4.6.1.000 -release      AUG 23, 2017; 14:09:35
                                                                                
*RUN   2        : P2                        MZCER046 1\000001    2              
 MODEL          : MZCER046 - Maize                                              
 EXPERIMENT     : 1\000001 BN Calibracion Cerete 2013                           
 DATA PATH      : C:\L\0\00000                                                  
 TREATMENT  2   : P2                        MZCER046                            
  
!                                                                                                                                                                                                                                      Root Dens. (cm/cm3) by soil depth (cm):
!                                                                                                                                                                                                                                      0-5    5-15   15-30   30-53   53-77  77-100
@YEAR DOY   DAS   DAP   L#SD   GSTD   LAID   LWAD   SWAD   GWAD   RWAD   VWAD   CWAD   G#AD   GWGD   HIAD   PWAD   P#AD   WSPD   WSGD   NSTD   EWSD  PST1A  PST2A   KSTD   LN%D   SH%D   HIPD   PWDD   PWTD     SLAD   CHTD   CWID   RDPD    RL1D    RL2D    RL3D    RL4D    RL5D    RL6D   CDAD   LDAD   SDAD   SNW0C   SNW1C  DTTD
 2013 119    15     0    0.0      0   0.00      0      0      0      0      0      0      0    0.0  0.000      0      0  0.000  0.000  0.000  0.000  0.000  0.000  0.000   0.00   0.00   0.00      0      0      0.0   0.00   0.00   0.05    0.00    0.00    0.00    0.00    0.00    0.00      0      0      0       0       0 18.72
 2013 120    16     1    0.0      0   0.00      0      0      0      0      0      0      0    0.0  0.000      0      0  0.000  0.000  0.000  0.000  0.000  0.000  0.000   0.00   0.00   0.00      0      0      0.0   0.00   0.00   0.08    0.00    0.00    0.00    0.00    0.00    0.00      0      0      0       0       0 21.05
 2013 121    17     2    0.0      0   0.00      0      0      0      0      0      0      0    0.0  0.000      0      0  0.000  0.000  0.000  0.000  0.000  0.000  0.000   0.00   0.00   0.00      0      0      0.0   0.00   0.00   0.11    0.00    0.00    0.00    0.00    0.00    0.00      0      0      0       0       0 18.42
 2013 122    18     3    0.0      0   0.00      0      0      0      0      0      0      0    0.0  0.000      0      0  0.000  0.000  0.000  0.000  0.000  0.000  0.000   0.00   0.00   0.00      0      0      0.0   0.00   0.00   0.14    0.00    0.00    0.00    0.00    0.00    0.00      0      0      0       0       0 21.54
 2013 123    19     4    0.0      0   0.00      0      0      0      0      0      0      0    0.0  0.000      0      0  0.000  0.000  0.000  0.000  0.000  0.000  0.000   0.00   0.00   0.00      0      0      0.0   0.00   0.00   0.17    0.00    0.00    0.00    0.00    0.00    0.00      0      0      0       0       0 17.34
 2013 124    20     5    2.0      1   0.00     12     12      0     12     25     25      0    0.0  0.000      0      0  0.000  0.000  0.012  0.000  0.000  0.000  0.000   4.40   0.00   0.00      0      0     36.0   0.00   0.00   0.19    0.25    0.12    0.01    0.00    0.00    0.00      0      0      0       0       0 20.68
 2013 125    21     6    2.0      1   0.01     12     12      0     13     25     25      0    0.0  0.000      0      0  0.000  0.000  0.010  0.000  0.000  0.000  0.000   4.40   0.00   0.00      0      0     66.7   0.00   0.00   0.21    0.25    0.13    0.01    0.00    0.00    0.00      0      0      0       0       0 17.55
 2013 126    22     7    3.0      1   0.01     12     12      0     14     25     25      0    0.0  0.000      0      0  0.000  0.000  0.000  0.000  0.000  0.000  0.000   4.40   0.00   0.00      0      0    107.4   0.01   0.00   0.23    0.26    0.13    0.01    0.00    0.00    0.00      0      0      0       0       0 20.01
 2013 127    23     8    3.0      1   0.02     12     12      0     14     25     25      0    0.0  0.000      0      0  0.000  0.000  0.000  0.000  0.000  0.000  0.000   4.40   0.00   0.00      0      0    141.8   0.01   0.00   0.24    0.26    0.14    0.02    0.00    0.00    0.00      0      0      0       0       0 15.70
 2013 128    24     9    4.0      1   0.04     12     12      0     16     25     25      0    0.0  0.000      0      0  0.000  0.000  0.000  0.000  0.000  0.000  0.000   4.40   0.00   0.00      0      0    292.9   0.02   0.00   0.26    0.28    0.15    0.03    0.00    0.00    0.00      0      0      0       0       0 19.24
 2013 129    25    10    4.0      1   0.06     18     12      0     17     30     30      0    0.0  0.000      0      0  0.000  0.000  0.000  0.000  0.000  0.000  0.000   3.58   0.00   0.00      0      0    318.1   0.03   0.00   0.28    0.28    0.16    0.03    0.00    0.00    0.00      0      0      0       0       0 18.75
 2013 130    26    11    5.0      1   0.08     29     12      0     19     42     42      0    0.0  0.000      0      0  0.000  0.000  0.000  0.000  0.000  0.000  0.000   2.99   0.00   0.00      0      0    288.2   0.05   0.00   0.30    0.30    0.17    0.04    0.00    0.00    0.00      0      0      0       0       0 20.19
 2013 131    27    12    5.0      1   0.12     44     12      0     21     56     56      0    0.0  0.000      0      0  0.000  0.000  0.000  0.000  0.000  0.000  0.000   3.00   0.00   0.00      0      0    265.9   0.06   0.00   0.32    0.31    0.18    0.06    0.00    0.00    0.00      0      0      0       0       0 20.27
 2013 132    28    13    6.0      1   0.15     61     12      0     26     74     74      0    0.0  0.000      0      0  0.000  0.000  0.000  0.000  0.000  0.000  0.000   3.00   0.00   0.00      0      0    248.0   0.08   0.00   0.33    0.33    0.21    0.09    0.00    0.00    0.00      0      0      0       0       0 20.59
 2013 133    29    14    6.0      2   0.20     78     12      0     31     90     90      0    0.0  0.000      0      0  0.000  0.000  0.000  0.000  0.000  0.000  0.000   3.17   0.00   0.00      0      0    252.2   0.11   0.00   0.34    0.35    0.24    0.13    0.00    0.00    0.00      0      0      0       0       0 19.18
 2013 134    30    15    7.0      2   0.25    106     12      0     38    118    118      0    0.0  0.000      0      0  0.000  0.000  0.003  0.000  0.000  0.000  0.000   2.97   0.00   0.00      0      0    236.8   0.13   0.00   0.35    0.38    0.27    0.18    0.00    0.00    0.00      0      0      0       0       1 20.63
 2013 135    31    16    7.0      2   0.30    132     12      0     42    145    145      0    0.0  0.000      0      0  0.000  0.000  0.000  0.000  0.000  0.000  0.000   3.14   0.00   0.00      0      0    226.0   0.16   0.00   0.37    0.39    0.29    0.21    0.01    0.00    0.00      0      0      0       0       1 17.81
 2013 136    32    17    8.0      2   0.37    171     12      0     54    184    184      0    0.0  0.000      0      0  0.000  0.000  0.000  0.000  0.000  0.000  0.000   2.99   0.00   0.00      0      0    214.3   0.20   0.00   0.39    0.43    0.35    0.31    0.02    0.00    0.00      0      0      0       0       1 20.47
 2013 137    33    18    8.0      2   0.41    198     12      0     59    210    210      0    0.0  0.000      0      0  0.000  0.000  0.000  0.000  0.000  0.000  0.000   3.78   0.00   0.00      0      0    207.9   0.22   0.00   0.41    0.43    0.36    0.34    0.02    0.00    0.00      0      0      0       0       1 17.19
 2013 138    34    19    9.0      2   0.49    249     12      0     89    261    261      0    0.0  0.000      0      0  0.000  0.000  0.000  0.000  0.000  0.000  0.000   3.73   0.00   0.00      0      0    198.2   0.27   0.00   0.43    0.49    0.47    0.56    0.07    0.00    0.00      0      0      0       0       2 20.20
 2013 139    35    20    9.0      2   0.56    294     12      0     96    306    306      0    0.0  0.000      0      0  0.000  0.000  0.000  0.000  0.000  0.000  0.000   3.69   0.00   0.00      0      0    191.4   0.30   0.00   0.45    0.51    0.49    0.61    0.09    0.00    0.00      0      0      0       0       2 17.62
 2013 140    36    21    9.0      3   0.65    356     13      0    134    369    369      0    0.0  0.000      0      0  0.000  0.000  0.000  0.000  0.000  0.000  0.000   3.61   0.00   0.00      0      0    183.6   0.35   0.00   0.47    0.63    0.59    0.85    0.19    0.00    0.00      0      0      0       0       2 19.27
 2013 141    37    22   10.0      3   0.75    420     14      0    146    433    433      0    0.0  0.000      0      0  0.000  0.000  0.000  0.000  0.000  0.000  0.000   3.54   0.00   0.00      0      0    178.2   0.40   0.00   0.49    0.63    0.61    0.93    0.23    0.00    0.00      0      0      0       0       3 17.57
 2013 142    38    23   10.0      3   0.86    501     16      0    173    517    517      0    0.0  0.000      0      0  0.000  0.000  0.000  0.000  0.000  0.000  0.000   3.48   0.00   0.00      0      0    172.5   0.47   0.00   0.51    0.65    0.62    1.08    0.35    0.00    0.00      0      0      0       0       4 19.69
 2013 143    39    24   11.0      3   0.97    578     20      0    199    598    598      0    0.0  0.000      0      0  0.000  0.000  0.000  0.000  0.000  0.000  0.000   3.42   0.00   0.00      0      0    168.0   0.52   0.00   0.53    0.67    0.64    1.10    0.54    0.00    0.00      0      0      0       0       5 16.89
 2013 144    40    25   11.0      3   1.09    669     28      0    221    697    697      0    0.0  0.000      0      0  0.000  0.000  0.000  0.000  0.000  0.000  0.000   3.37   0.00   0.00      0      0    163.5   0.59   0.00   0.54    1.37    0.64    1.10    0.58    0.00    0.00      0      0      0       0       6 18.00
 2013 145    41    26   12.0      3   1.25    792     43      0    260    835    835      0    0.0  0.000      0      0  0.000  0.000  0.000  0.000  0.000  0.000  0.000   3.32   0.00   0.00      0      0    158.3   0.68   0.00   0.56    2.56    0.65    1.11    0.62    0.02    0.00      0      0      0       0       7 18.90
 2013 146    42    27   12.0      3   1.40    906     62      0    270    967    967      0    0.0  0.000      0      0  0.000  0.000  0.000  0.000  0.000  0.000  0.000   3.27   0.00   0.00      0      0    154.4   0.75   0.00   0.58    2.79    0.71    1.10    0.63    0.02    0.00      0      0      0       0       8 16.75
 2013 147    43    28   12.0      3   1.56   1039     90      0    306   1129   1129      0    0.0  0.000      0      0  0.000  0.000  0.000  0.000  0.000  0.000  0.000   3.21   0.00   0.00      0      0    150.4   0.84   0.00   0.60    3.40    1.04    1.10    0.64    0.04    0.00      0      0      0       0       9 19.20
 2013 148    44    29   13.0      3   1.73   1176    128      0    328   1304   1304      0    0.0  0.000      0      0  0.000  0.000  0.000  0.000  0.000  0.000  0.000   3.16   0.00   0.00      0      0    146.8   0.93   0.00   0.62    3.66    1.25    1.15    0.65    0.04    0.00      0      0      0       0      11 19.15
 2013 149    45    30   13.0      3   1.88   1307    173      0    379   1480   1480      0    0.0  0.000      0      0  0.000  0.000  0.000  0.000  0.000  0.000  0.000   3.11   0.00   0.00      0      0    143.9   1.01   0.00   0.64    4.00    1.67    1.29    0.66    0.06    0.00      0      0      0       0      13 18.00
 2013 150    46    31   14.0      3   2.04   1444    229      0    401   1673   1673      0    0.0  0.000      0      0  0.000  0.000  0.000  0.000  0.000  0.000  0.000   3.06   0.00   0.00      0      0    141.1   1.10   0.00   0.66    4.00    1.85    1.35    0.67    0.07    0.00      0      0      0       0      15 18.30
 2013 151    47    32   14.0      3   2.20   1586    299      0    426   1884   1884      0    0.0  0.000      0      0  0.000  0.000  0.000  0.000  0.000  0.000  0.000   3.01   0.00   0.00      0      0    138.6   1.18   0.00   0.68    4.00    2.04    1.42    0.67    0.09    0.00      0      0      0       0      17 18.60
 2013 152    48    33   15.0      3   2.36   1731    383      0    472   2114   2114      0    0.0  0.000      0      0  0.000  0.000  0.000  0.000  0.000  0.000  0.000   2.96   0.00   0.00      0      0    136.2   1.27   0.00   0.70    4.00    2.41    1.54    0.69    0.12    0.00      0      0      0       0      19 18.75
 2013 153    49    34   15.0      3   2.52   1875    479      0    519   2354   2354      0    0.0  0.000      0      0  0.000  0.000  0.000  0.000  0.000  0.000  0.000   2.91   0.00   0.00      0      0    134.2   1.36   0.00   0.72    4.00    2.80    1.66    0.70    0.15    0.00      0      0      0       0      21 18.20
 2013 154    50    35   15.0      3   2.67   2016    587      0    530   2602   2602      0    0.0  0.000      0      0  0.000  0.000  0.000  0.000  0.000  0.000  0.000   2.87   0.00   0.00      0      0    132.3   1.44   0.00   0.74    4.00    2.89    1.67    0.71    0.16    0.00      0      0      0       0      24 18.05
 2013 155    51    36   16.0      3   2.82   2165    717      0    553   2881   2881      0    0.0  0.000      0      0  0.000  0.000  0.000  0.000  0.000  0.000  0.000   2.82   0.00   0.00      0      0    130.4   1.52   0.00   0.76    4.00    3.07    1.70    0.71    0.20    0.00      0      0      0       0      26 18.30
 2013 156    52    37   16.0      3   3.01   2339    883      0    569   3223   3226      0    0.0  0.000      3      0  0.000  0.000  0.000  0.000  0.000  0.000  0.000   2.65   0.00   0.00      0      3    128.5   1.60   0.00   0.78    4.00    3.18    1.70    0.72    0.24    0.00      0      0      0       0      29 18.50
 2013 157    53    38   17.0      3   3.11   2446   1032      0    581   3477   3484      0    0.0  0.000      6      0  0.000  0.000  0.000  0.000  0.000  0.000  0.000   2.53   0.00   0.00      0      6    127.4   1.60   0.00   0.79    4.00    3.20    1.70    0.72    0.27    0.01      0      0      0       0      32 17.90
 2013 158    54    39   17.0      3   3.24   2564   1231      0    596   3795   3809      0    0.0  0.000     14      0  0.000  0.000  0.000  0.000  0.000  0.000  0.000   2.37   0.00   0.00      0     14    126.2   1.60   0.00   0.81    4.00    3.20    1.71    0.72    0.34    0.05      0      0      0       0      35 18.05
 2013 159    55    40   18.0      3   3.33   2663   1421      0    628   4084   4111      0    0.0  0.000     27      0  0.000  0.169  0.011  0.000  0.000  0.000  0.000   2.25   0.00   0.01      0     27    125.1   1.60   0.00   0.83    3.98    3.23    1.75    0.73    0.44    0.17      0      0      0       0      38 17.95
 2013 160    56    41   18.0      3   3.42   2764   1632      0    643   4396   4441      0    0.0  0.000     45      0  0.000  0.096  0.036  0.000  0.000  0.000  0.000   2.14   0.00   0.01      0     45    123.6   1.60   0.00   0.85    3.96    3.24    1.77    0.74    0.47    0.25      0      0      0       0      41 19.00
 2013 161    57    42   18.0      3   3.47   2835   1793      0    653   4629   4690      0    0.0  0.000     61      0  0.000  0.073  0.051  0.000  0.000  0.000  0.000   2.08   0.00   0.01      0     61    122.2   1.60   0.00   0.87    3.94    3.25    1.78    0.74    0.49    0.32      0      0      0       0      44 18.50
 2013 162    58    43   19.0      3   3.51   2904   1953      0    664   4857   4943      0    0.0  0.000     86      0  0.000  0.152  0.066  0.000  0.000  0.000  0.000   2.02   0.00   0.02      0     86    120.7   1.60   0.00   0.89    3.92    3.25    1.79    0.74    0.49    0.40      0      0      0       0      47 18.25
 2013 163    59    44   19.0      3   3.53   2966   2081      0    716   5046   5179      0    0.0  0.000    133      0  0.000  0.306  0.072  0.000  0.000  0.000  0.000   1.98   0.00   0.03      0    133    119.2   1.60   0.00   0.91    4.00    3.29    1.84    0.75    0.50    0.59      0      0      0       0      51 18.60
 2013 164    60    45   20.0      3   3.57   3037   2230      0    752   5267   5469      0    0.0  0.000    202      0  0.000  0.000  0.075  0.000  0.000  0.000  0.000   1.92   0.00   0.04      0    202    117.5   1.60   0.00   0.93    3.98    3.34    1.89    0.76    0.52    0.81      0      0      0       0      54 19.80
 2013 165    61    46   20.0      3   3.56   3078   2283      0    809   5361   5634      0    0.0  0.000    272      0  0.289  0.526  0.080  0.000  0.000  0.000  0.000   1.91   0.00   0.05      0    272    115.6   1.60   0.00   0.95    3.96    3.43    1.99    0.79    0.54    1.14      0      0      0       0      58 19.25
 2013 166    62    47   20.0      3   3.52   3113   2321      0    842   5433   5774      0    0.0  0.000    341      0  0.398  0.599  0.087  0.000  0.000  0.000  0.000   1.90   0.00   0.06      0    341    113.1   1.60   0.00   0.97    3.94    3.48    2.05    0.80    0.56    1.34      0      0      0       0      62 19.40
 2013 167    63    48   20.0      3   3.44   3138   2330      0    870   5468   5875      0    0.0  0.000    407      0  0.586  0.725  0.084  0.000  0.000  0.000  0.000   1.90   0.00   0.07      0    407    109.7   1.60   0.00   0.99    3.92    3.53    2.10    0.82    0.57    1.50      0      0      0       0      66 20.45
 2013 168    64    49   20.0      3   3.36   3161   2335      0    888   5496   5971      0    0.0  0.000    475      0  0.608  0.739  0.080  0.000  0.000  0.000  0.000   1.90   0.00   0.08      0    475    106.2   1.60   0.00   1.00    3.90    3.56    2.14    0.82    0.58    1.61      0      0      0       0      71 20.40
 2013 169    65    50   20.0      3   3.26   3180   2364      0    905   5543   6047      0    0.0  0.000    504      0  0.681  0.788  0.073  0.000  0.000  0.000  0.000   1.89   0.00   0.08      0    504    102.6   1.60   0.00   1.00    3.88    3.54    2.18    0.84    0.60    1.72      0      0      0       0      75 19.95
 2013 170    66    51   20.0      4   3.16   3145   2441      0    905   5586   6104      0    0.0  0.000    518      0  0.649  0.766  0.066  0.000  0.000  0.000  0.000   1.88   0.00   0.08      0    518    100.4   1.60   0.00   1.00    3.86    3.52    2.18    0.83    0.60    1.73      0      0      0       0      80 19.65
 2013 171    67    52   20.0      4   3.03   3106   2512      0    904   5618   6145      0    0.0  0.000    527      0  0.767  0.845  0.058  0.000  0.000  0.000  0.000   1.88   0.00   0.09      0    527     97.7   1.60   0.00   1.00    3.84    3.50    2.18    0.83    0.59    1.73      0      0      0       0      84 19.90
 2013 172    68    53   20.0      4   2.91   3065   2576      0    902   5641   6175      0    0.0  0.000    534      0  0.803  0.869  0.051  0.000  0.000  0.000  0.000   1.87   0.00   0.09      0    534     95.0   1.60   0.00   1.00    3.82    3.48    2.18    0.83    0.59    1.74      0      0      0       0      89 19.25
 2013 173    69    54   20.0      4   2.80   3020   2632      0    901   5652   6193      0    0.0  0.000    542      0  0.786  0.858  0.043  0.000  0.000  0.000  0.000   1.87   0.00   0.09      0    542     92.7   1.60   0.00   1.00    3.80    3.47    2.18    0.83    0.59    1.74      0      0      0       0      93 19.80
 2013 174    70    55   20.0      4   2.69   2972   2682      0    899   5654   6202      0    0.0  0.000    548      0  0.783  0.856  0.033  0.000  0.000  0.000  0.000   1.88   0.00   0.09      0    548     90.5   1.60   0.00   1.00    3.78    3.45    2.18    0.83    0.59    1.74      0      0      0       0      98 20.05
 2013 175    71    56   20.0      4   2.58   2921   2729      0    896   5650   6204      0    0.0  0.000    554      0  0.814  0.877  0.023  0.000  0.000  0.000  0.000   1.88   0.00   0.09      0    554     88.3   1.60   0.00   1.00    3.76    3.43    2.18    0.82    0.59    1.74      0      0      0       0     102 19.90
 2013 176    72    57   20.0      4   2.47   2867   2773      0    894   5640   6197      0    0.0  0.000    557      0  0.866  0.911  0.012  0.000  0.000  0.000  0.000   1.89   0.00   0.09      0    557     86.1   1.60   0.00   1.00    3.74    3.41    2.17    0.82    0.59    1.74      0      0      0       0     107 20.00
 2013 177    73    58   20.0      4   2.36   2809   2813      0    891   5622   6183      0    0.0  0.000    561      0  0.858  0.906  0.000  0.000  0.000  0.000  0.000   1.90   0.00   0.09      0    561     84.1   1.60   0.00   1.00    3.72    3.39    2.17    0.82    0.59    1.73      0      0      0       0     111 20.83
 2013 178    74    59   20.0      5   2.26   2809   2813     19    893   5622   6202    798    2.4  0.003    580      6  0.857  0.905  0.000  0.000  0.000  0.000  0.000   1.89   3.25   0.09      0    580     80.5   1.60   0.00   1.00    3.70    3.38    2.19    0.82    0.59    1.74      0      0      0       0     116 21.43
 2013 179    75    60   20.0      5   2.16   2809   2813     43    893   5622   6226    798    5.4  0.007    604      6  0.868  0.913  0.000  0.000  0.000  0.000  0.000   1.90   7.11   0.10      0    604     77.0   1.60   0.00   1.00    3.85    3.36    2.18    0.82    0.59    1.73      0      0      0       0     120 19.90
 2013 180    76    61   20.0      5   2.11   2809   2813     76    927   5622   6259    798    9.5  0.012    637      6  0.457  0.638  0.000  0.000  0.000  0.000  0.000   1.89  11.92   0.10      0    637     75.2   1.60   0.00   1.00    3.83    3.34    2.38    0.87    0.64    1.79      0      0      0       0     120 20.20
 2013 181    77    62   20.0      5   2.03   2809   2813    105    925   5622   6288    798   13.2  0.017    666      6  0.796  0.865  0.000  0.000  0.000  0.000  0.000   1.88  15.78   0.11      0    666     72.2   1.60   0.00   1.00    3.85    3.37    2.37    0.87    0.64    1.78      0      0      0       0     120 18.00
 2013 182    78    63   20.0      5   2.03   2809   2813    157    972   5622   6340    798   19.7  0.025    718      6  0.000  0.000  0.000  0.000  0.000  0.000  0.000   1.86  21.86   0.11      0    718     72.2   1.60   0.00   1.00    4.00    3.95    2.45    0.86    0.64    1.78      0      0      0       0     120 18.20
 2013 183    79    64   20.0      5   2.03   2809   2813    209   1041   5622   6392    798   26.2  0.033    770      6  0.000  0.000  0.000  0.000  0.000  0.000  0.000   1.85  27.13   0.12      0    770     72.2   1.60   0.00   1.00    4.00    4.00    2.62    0.86    0.64    1.77      0      0      0       0     120 17.55
 2013 184    80    65   20.0      5   2.03   2809   2813    261   1106   5622   6444    798   32.7  0.040    822      6  0.000  0.000  0.000  0.000  0.000  0.000  0.000   1.83  31.73   0.13      0    822     72.2   1.60   0.00   1.00    4.00    4.00    2.78    0.86    0.63    1.76      0      0      0       0     120 18.95
 2013 185    81    66   20.0      5   2.03   2809   2813    313   1163   5622   6496    798   39.2  0.048    873      6  0.000  0.000  0.000  0.000  0.000  0.000  0.000   1.82  35.78   0.13      0    873     72.2   1.60   0.00   1.00    4.00    4.00    2.92    0.86    0.63    1.76      0      0      0       0     120 18.90
 2013 186    82    67   20.0      5   2.03   2809   2813    364   1213   5622   6548    798   45.7  0.056    925      6  0.000  0.000  0.000  0.000  0.000  0.000  0.000   1.80  39.38   0.14      0    925     72.2   1.60   0.00   1.00    4.00    4.00    3.10    0.85    0.63    1.75      0      0      0       0     120 17.50
 2013 187    83    68   20.0      5   2.03   2809   2813    412   1281   5622   6595    798   51.6  0.062    973      6  0.000  0.000  0.000  0.000  0.000  0.000  0.000   1.79  42.33   0.15      0    973     72.2   1.60   0.00   1.00    4.00    4.00    3.39    0.85    0.63    1.74      0      0      0       0     120 19.70
 2013 188    84    69   20.0      5   2.03   2809   2813    464   1349   5622   6647    798   58.1  0.070   1025      6  0.000  0.000  0.000  0.000  0.000  0.000  0.000   1.77  45.25   0.15      0   1025     72.2   1.60   0.00   1.00    4.00    4.00    3.67    0.85    0.63    1.74      0      0      0       0     120 18.40
 2013 189    85    70   20.0      5   2.03   2809   2813    515   1417   5622   6698    798   64.5  0.077   1076      6  0.000  0.000  0.000  0.000  0.000  0.000  0.000   1.75  47.86   0.16      0   1076     72.2   1.60   0.00   1.00    4.00    4.00    3.95    0.84    0.62    1.73      0      0      0       0     120 19.10
 2013 190    86    71   20.0      5   2.03   2809   2813    567   1474   5622   6750    798   71.0  0.084   1128      6  0.000  0.000  0.000  0.000  0.000  0.000  0.000   1.74  50.26   0.17      0   1128     72.2   1.60   0.00   1.00    4.00    4.00    4.00    0.84    0.62    1.73      0      0      0       0     120 18.65
 2013 191    87    72   20.0      5   2.03   2809   2813    619   1509   5622   6802    798   77.5  0.091   1180      6  0.000  0.000  0.000  0.000  0.000  0.000  0.000   1.72  52.44   0.17      0   1180     72.2   1.60   0.00   1.00    4.00    4.00    4.00    0.84    0.62    1.72      0      0      0       0     120 17.65
 2013 192    88    73   20.0      5   2.03   2809   2813    670   1567   5622   6854    798   84.0  0.098   1231      6  0.000  0.172  0.000  0.000  0.000  0.000  0.000   1.71  54.45   0.18      0   1231     72.2   1.60   0.00   1.00    3.98    4.00    4.00    0.83    0.62    1.71      0      0      0       0     120 18.50
 2013 193    89    74   20.0      5   2.00   2809   2813    713   1603   5622   6896    798   89.3  0.103   1274      6  0.305  0.537  0.000  0.000  0.000  0.000  0.000   1.69  55.96   0.18      0   1274     71.1   1.60   0.00   1.00    3.96    4.00    4.00    0.83    0.62    1.71      0      0      0       0     120 19.15
 2013 194    90    75   20.0      5   1.95   2809   2813    748   1624   5622   6932    798   93.8  0.108   1309      6  0.517  0.679  0.000  0.000  0.000  0.000  0.000   1.68  57.16   0.19      0   1309     69.3   1.60   0.00   1.00    3.94    4.00    4.00    0.83    0.62    1.70      0      0      0       0     120 19.35
 2013 195    91    76   20.0      5   1.88   2809   2813    776   1638   5622   6959    798   97.2  0.111   1336      6  0.669  0.780  0.000  0.000  0.000  0.000  0.000   1.67  58.03   0.19      0   1336     67.0   1.60   0.00   1.00    3.92    4.00    4.00    0.83    0.61    1.69      0      0      0       0     120 20.33
 2013 196    92    77   20.0      5   1.83   2809   2813    813   1645   5622   6996    798  101.8  0.116   1373      6  0.522  0.682  0.000  0.000  0.000  0.000  0.000   1.66  59.16   0.20      0   1373     65.2   1.60   0.00   1.00    3.90    4.00    4.00    0.82    0.61    1.69      0      0      0       0     120 18.95
 2013 197    93    78   20.0      5   1.77   2809   2813    845   1650   5622   7028    798  105.9  0.120   1406      6  0.663  0.776  0.000  0.000  0.000  0.000  0.000   1.65  60.10   0.20      0   1406     63.1   1.60   0.00   1.00    3.88    4.00    4.00    0.82    0.61    1.68      0      0      0       0     120 19.15
 2013 198    94    79   20.0      5   1.70   2809   2813    871   1653   5622   7054    798  109.1  0.123   1432      6  0.774  0.850  0.000  0.000  0.000  0.000  0.000   1.64  60.82   0.20      0   1432     60.6   1.60   0.00   1.00    3.86    4.00    4.00    0.82    0.61    1.68      0      0      0       0     120 19.99
 2013 199    95    80   20.0      5   1.64   2809   2813    902   1654   5622   7085    798  113.0  0.127   1463      6  0.730  0.820  0.000  0.000  0.000  0.000  0.000   1.63  61.65   0.21      0   1463     58.4   1.60   0.00   1.00    3.84    3.98    4.00    0.81    0.61    1.67      0      0      0       0     120 18.70
 2013 200    96    81   20.0      5   1.59   2809   2813    937   1650   5622   7120    798  117.4  0.132   1498      6  0.595  0.731  0.000  0.000  0.000  0.000  0.000   1.62  62.55   0.21      0   1498     56.7   1.60   0.00   1.00    3.82    3.96    4.00    0.81    0.61    1.67      0      0      0       0     120 18.00
 2013 201    97    82   20.0      5   1.53   2809   2813    966   1646   5622   7150    798  121.1  0.135   1527      6  0.747  0.832  0.000  0.000  0.000  0.000  0.000   1.61  63.27   0.21      0   1527     54.6   1.60   0.00   1.00    3.80    3.94    4.00    0.81    0.61    1.67      0      0      0       0     120 19.25
 2013 202    98    83   20.0      5   1.47   2809   2813    988   1643   5622   7171    798  123.8  0.138   1549      6  0.852  0.902  0.000  0.000  0.000  0.000  0.000   1.60  63.78   0.22      0   1549     52.2   1.60   0.00   1.00    3.78    3.92    3.98    0.83    0.63    1.66      0      0      0       0     120 20.49
 2013 203    99    84   20.0      5   1.40   2809   2813   1007   1636   5622   7191    798  126.2  0.140   1568      6  0.915  0.944  0.000  0.000  0.000  0.000  0.000   1.60  64.23   0.22      0   1568     49.8   1.60   0.00   1.00    3.76    3.90    3.96    0.83    0.63    1.65      0      0      0       0     120 20.67
 2013 204   100    85   20.0      5   1.34   2809   2811   1034   1628   5620   7215    798  129.6  0.143   1595      6  0.882  0.922  0.000  0.000  0.000  0.000  0.000   1.59  64.83   0.22      0   1595     47.6   1.60   0.00   1.00    3.76    3.90    3.96    0.83    0.63    1.65      0      0      0       0     120 17.70
 2013 205   101    86   20.0      5   1.34   2809   2813   1080   1673   5622   7264    798  135.4  0.149   1641      6  0.000  0.000  0.000  0.000  0.000  0.000  0.000   1.57  65.83   0.23      0   1641     47.6   1.60   0.00   1.00    4.00    4.00    3.94    0.83    0.62    1.64      0      0      0       0     120 19.77
 2013 206   102    87   20.0      5   1.31   2809   2813   1121   1689   5622   7304    798  140.5  0.153   1682      6  0.401  0.601  0.000  0.000  0.000  0.000  0.000   1.56  66.65   0.23      0   1682     46.7   1.60   0.00   1.00    4.00    4.00    3.92    0.82    0.62    1.63      0      0      0       0     120 18.70
 2013 207   103    88   20.0      5   1.26   2809   2813   1148   1688   5622   7331    798  143.9  0.157   1709      6  0.745  0.830  0.000  0.000  0.000  0.000  0.000   1.55  67.18   0.23      0   1709     45.0   1.60   0.00   1.00    3.98    4.00    3.90    0.82    0.62    1.62      0      0      0       0     120 19.85
 2013 208   104    89   20.0      5   1.21   2809   2813   1170   1683   5622   7353    798  146.6  0.159   1731      6  0.853  0.903  0.000  0.000  0.000  0.000  0.000   1.54  67.59   0.24      0   1731     43.0   1.60   0.00   1.00    3.96    4.00    3.88    0.82    0.62    1.62      0      0      0       0     120 20.47
 2013 209   105    90   20.0      5   1.16   2809   2813   1191   1677   5622   7374    798  149.3  0.162   1752      6  0.852  0.902  0.000  0.000  0.000  0.000  0.000   1.53  67.99   0.24      0   1752     41.2   1.60   0.00   1.00    3.94    4.00    3.86    0.81    0.61    1.61      0      0      0       0     120 20.67
 2013 210   106    91   20.0      5   1.11   2809   2813   1215   1670   5622   7398    798  152.2  0.164   1776      6  0.890  0.927  0.000  0.000  0.000  0.000  0.000   1.53  68.41   0.24      0   1776     39.4   1.60   0.00   1.00    3.92    4.00    3.84    0.81    0.61    1.60      0      0      0       0     120 19.69
 2013 211   107    92   20.0      5   1.06   2809   2813   1240   1661   5622   7423    798  155.4  0.167   1801      6  0.866  0.911  0.000  0.000  0.000  0.000  0.000   1.52  68.86   0.24      0   1801     37.7   1.60   0.00   1.00    3.92    4.00    3.84    0.81    0.61    1.60      0      0      0       0     120 19.50
 2013 212   108    93   20.0      5   1.01   2809   2812   1264   1653   5621   7446    798  158.4  0.170   1825      6  0.885  0.924  0.000  0.000  0.000  0.000  0.000   1.51  69.26   0.25      0   1825     36.0   1.60   0.00   1.00    3.92    4.00    3.84    0.81    0.61    1.60      0      0      0       0     120 19.81
 2013 213   109    94   20.0      5   1.01   2809   2812   1264   1653   5621   7446    798  158.4  0.170   1825      6  0.902  0.935  0.000  0.000  0.000  0.000  0.000   1.51  69.26   0.25      0   1825     36.0   1.60   0.00   1.00    3.92    4.00    3.84    0.81    0.61    1.60      0      0      0       0     120 19.78
 2013 214   110    95   20.0      5   1.01   2809   2812   1264   1653   5621   7446    798  158.4  0.170   1825      6  0.922  0.949  0.000  0.000  0.000  0.000  0.000   1.51  69.26   0.25      0   1825     36.0   1.60   0.00   1.00    3.92    4.00    3.84    0.81    0.61    1.60      0      0      0       0     120 21.30
 2013 215   111    96   20.0      5   1.01   2809   2812   1264   1653   5621   7446    798  158.4  0.170   1825      6  0.000  0.949  0.000  0.000  0.000  0.000  0.000   1.51  69.26   0.25      0   1825     36.0   1.60   0.00   1.00    3.92    4.00    3.84    0.81    0.61    1.60      0      0      0       0     120  0.00
 2013 216   112    97   20.0      5   1.01   2809   2812   1264   1653   5621   7446    798  158.4  0.170   1825      6  0.000  0.949  0.000  0.000  0.000  0.000  0.000   1.51  69.26   0.25      0   1825     36.0   1.60   0.00   1.00    3.92    4.00    3.84    0.81    0.61    1.60      0      0      0       0     120 19.58

*DSSAT Cropping System Model Ver. 4.6.1.000 -release      AUG 23, 2017; 14:09:35
                                                                                
*RUN   3        : P3                        MZCER046 1\000001    3              
 MODEL          : MZCER046 - Maize                                              
 EXPERIMENT     : 1\000001 BN Calibracion Cerete 2013                           
 DATA PATH      : C:\L\0\00000                                                  
 TREATMENT  3   : P3                        MZCER046                            
  
!                                                                                                                                                                                                                                      Root Dens. (cm/cm3) by soil depth (cm):
!                                                                                                                                                                                                                                      0-5    5-15   15-30   30-53   53-77  77-100
@YEAR DOY   DAS   DAP   L#SD   GSTD   LAID   LWAD   SWAD   GWAD   RWAD   VWAD   CWAD   G#AD   GWGD   HIAD   PWAD   P#AD   WSPD   WSGD   NSTD   EWSD  PST1A  PST2A   KSTD   LN%D   SH%D   HIPD   PWDD   PWTD     SLAD   CHTD   CWID   RDPD    RL1D    RL2D    RL3D    RL4D    RL5D    RL6D   CDAD   LDAD   SDAD   SNW0C   SNW1C  DTTD
 2013 133    29     0    0.0      0   0.00      0      0      0      0      0      0      0    0.0  0.000      0      0  0.000  0.000  0.000  0.000  0.000  0.000  0.000   0.00   0.00   0.00      0      0      0.0   0.00   0.00   0.05    0.00    0.00    0.00    0.00    0.00    0.00      0      0      0       0       0 19.18
 2013 134    30     1    0.0      0   0.00      0      0      0      0      0      0      0    0.0  0.000      0      0  0.000  0.000  0.000  0.000  0.000  0.000  0.000   0.00   0.00   0.00      0      0      0.0   0.00   0.00   0.08    0.00    0.00    0.00    0.00    0.00    0.00      0      0      0       0       0 20.63
 2013 135    31     2    0.0      0   0.00      0      0      0      0      0      0      0    0.0  0.000      0      0  0.000  0.000  0.000  0.000  0.000  0.000  0.000   0.00   0.00   0.00      0      0      0.0   0.00   0.00   0.11    0.00    0.00    0.00    0.00    0.00    0.00      0      0      0       0       0 17.81
 2013 136    32     3    0.0      0   0.00      0      0      0      0      0      0      0    0.0  0.000      0      0  0.000  0.000  0.000  0.000  0.000  0.000  0.000   0.00   0.00   0.00      0      0      0.0   0.00   0.00   0.14    0.00    0.00    0.00    0.00    0.00    0.00      0      0      0       0       0 20.47
 2013 137    33     4    0.0      0   0.00      0      0      0      0      0      0      0    0.0  0.000      0      0  0.000  0.000  0.000  0.000  0.000  0.000  0.000   0.00   0.00   0.00      0      0      0.0   0.00   0.00   0.16    0.00    0.00    0.00    0.00    0.00    0.00      0      0      0       0       0 17.19
 2013 138    34     5    2.0      1   0.00     12     12      0     12     25     25      0    0.0  0.000      0      0  0.000  0.000  0.012  0.000  0.000  0.000  0.000   4.40   0.00   0.00      0      0     35.0   0.00   0.00   0.18    0.25    0.12    0.01    0.00    0.00    0.00      0      0      0       0       0 20.20
 2013 139    35     6    2.0      1   0.01     12     12      0     13     25     25      0    0.0  0.000      0      0  0.000  0.000  0.012  0.000  0.000  0.000  0.000   4.40   0.00   0.00      0      0     65.7   0.00   0.00   0.20    0.25    0.13    0.01    0.00    0.00    0.00      0      0      0       0       0 17.62
 2013 140    36     7    3.0      1   0.01     12     12      0     14     25     25      0    0.0  0.000      0      0  0.000  0.000  0.002  0.000  0.000  0.000  0.000   4.40   0.00   0.00      0      0    104.5   0.01   0.00   0.22    0.27    0.14    0.01    0.00    0.00    0.00      0      0      0       0       0 19.27
 2013 141    37     8    3.0      1   0.02     12     12      0     15     25     25      0    0.0  0.000      0      0  0.000  0.000  0.000  0.000  0.000  0.000  0.000   4.40   0.00   0.00      0      0    143.3   0.01   0.00   0.24    0.28    0.14    0.01    0.00    0.00    0.00      0      0      0       0       0 17.57
 2013 142    38     9    4.0      1   0.04     12     12      0     17     25     25      0    0.0  0.000      0      0  0.000  0.000  0.000  0.000  0.000  0.000  0.000   4.40   0.00   0.00      0      0    300.0   0.02   0.00   0.26    0.30    0.16    0.02    0.00    0.00    0.00      0      0      0       0       0 19.69
 2013 143    39    10    4.0      1   0.06     18     12      0     18     30     30      0    0.0  0.000      0      0  0.000  0.000  0.000  0.000  0.000  0.000  0.000   3.65   0.00   0.00      0      0    320.2   0.03   0.00   0.28    0.30    0.17    0.03    0.00    0.00    0.00      0      0      0       0       0 16.89
 2013 144    40    11    5.0      1   0.08     27     12      0     19     40     40      0    0.0  0.000      0      0  0.000  0.000  0.000  0.000  0.000  0.000  0.000   3.09   0.00   0.00      0      0    292.2   0.04   0.00   0.29    0.31    0.17    0.03    0.00    0.00    0.00      0      0      0       0       0 18.36
 2013 145    41    12    5.0      1   0.11     41     12      0     23     53     53      0    0.0  0.000      0      0  0.000  0.000  0.000  0.000  0.000  0.000  0.000   3.03   0.00   0.00      0      0    269.5   0.06   0.00   0.31    0.34    0.20    0.06    0.00    0.00    0.00      0      0      0       0       0 19.75
 2013 146    42    13    6.0      1   0.14     55     12      0     25     67     67      0    0.0  0.000      0      0  0.000  0.000  0.000  0.000  0.000  0.000  0.000   3.16   0.00   0.00      0      0    253.9   0.07   0.00   0.32    0.35    0.21    0.08    0.00    0.00    0.00      0      0      0       0       0 17.10
 2013 147    43    14    6.0      1   0.18     74     12      0     32     86     86      0    0.0  0.000      0      0  0.000  0.000  0.000  0.000  0.000  0.000  0.000   3.03   0.00   0.00      0      0    238.5   0.10   0.00   0.33    0.39    0.25    0.12    0.00    0.00    0.00      0      0      0       0       0 20.00
 2013 148    44    15    7.0      2   0.23     93     12      0     40    106    106      0    0.0  0.000      0      0  0.000  0.000  0.000  0.000  0.000  0.000  0.000   3.13   0.00   0.00      0      0    242.9   0.12   0.00   0.34    0.42    0.29    0.18    0.00    0.00    0.00      0      0      0       0       1 19.86
 2013 149    45    16    7.0      2   0.28    121     12      0     53    134    134      0    0.0  0.000      0      0  0.000  0.000  0.009  0.000  0.000  0.000  0.000   3.08   0.00   0.00      0      0    230.1   0.15   0.00   0.36    0.49    0.36    0.27    0.01    0.00    0.00      0      0      0       0       1 18.85
 2013 150    46    17    8.0      2   0.34    155     12      0     64    167    167      0    0.0  0.000      0      0  0.000  0.000  0.000  0.000  0.000  0.000  0.000   3.07   0.00   0.00      0      0    218.7   0.18   0.00   0.38    0.56    0.41    0.34    0.01    0.00    0.00      0      0      0       0       1 18.75
 2013 151    47    18    8.0      2   0.41    195     12      0     77    208    208      0    0.0  0.000      0      0  0.000  0.000  0.000  0.000  0.000  0.000  0.000   3.06   0.00   0.00      0      0    208.6   0.22   0.00   0.40    0.66    0.48    0.43    0.03    0.00    0.00      0      0      0       0       1 19.15
 2013 152    48    19    8.0      2   0.48    243     12      0    101    255    255      0    0.0  0.000      0      0  0.000  0.000  0.000  0.000  0.000  0.000  0.000   3.78   0.00   0.00      0      0    199.3   0.26   0.00   0.42    0.79    0.60    0.57    0.05    0.00    0.00      0      0      0       0       2 19.55
 2013 153    49    20    9.0      2   0.57    296     12      0    130    309    309      0    0.0  0.000      0      0  0.000  0.000  0.000  0.000  0.000  0.000  0.000   3.73   0.00   0.00      0      0    191.2   0.31   0.00   0.44    0.96    0.74    0.73    0.09    0.00    0.00      0      0      0       0       2 19.15
 2013 154    50    21    9.0      2   0.65    355     12      0    149    368    368      0    0.0  0.000      0      0  0.000  0.000  0.000  0.000  0.000  0.000  0.000   3.69   0.00   0.00      0      0    184.0   0.35   0.00   0.46    1.11    0.82    0.84    0.12    0.00    0.00      0      0      0       0       3 18.58
 2013 155    51    22   10.0      3   0.75    424     13      0    182    437    437      0    0.0  0.000      0      0  0.000  0.000  0.000  0.000  0.000  0.000  0.000   3.61   0.00   0.00      0      0    177.0   0.40   0.00   0.48    1.33    0.94    1.00    0.19    0.00    0.00      0      0      0       0       4 19.19
 2013 156    52    23   10.0      3   0.86    503     14      0    227    517    517      0    0.0  0.000      0      0  0.000  0.000  0.000  0.000  0.000  0.000  0.000   3.54   0.00   0.00      0      0    171.7   0.47   0.00   0.50    1.63    1.08    1.19    0.32    0.00    0.00      0      0      0       0       5 19.49
 2013 157    53    24   11.0      3   0.98    587     17      0    253    603    603      0    0.0  0.000      0      0  0.000  0.000  0.000  0.000  0.000  0.000  0.000   3.48   0.00   0.00      0      0    166.9   0.53   0.00   0.52    1.82    1.12    1.27    0.44    0.00    0.00      0      0      0       0       6 18.50
 2013 158    54    25   11.0      3   1.10    677     22      0    300    699    699      0    0.0  0.000      0      0  0.000  0.000  0.000  0.000  0.000  0.000  0.000   3.40   0.00   0.00      0      0    162.6   0.59   0.00   0.54    2.27    1.15    1.29    0.71    0.00    0.00      0      0      0       0       7 18.05
 2013 159    55    26   12.0      3   1.25    795     32      0    342    827    827      0    0.0  0.000      0      0  0.000  0.000  0.000  0.000  0.000  0.000  0.000   3.09   0.00   0.00      0      0    157.8   0.68   0.00   0.56    2.26    1.19    1.33    0.97    0.05    0.00      0      0      0       0       8 17.95
 2013 160    56    27   12.0      3   1.42    924     48      0    385    972    972      0    0.0  0.000      0      0  0.000  0.000  0.000  0.000  0.000  0.000  0.000   2.79   0.00   0.00      0      0    153.4   0.76   0.00   0.58    2.25    1.23    1.37    1.21    0.14    0.00      0      0      0       0      10 19.00
 2013 161    57    28   12.0      3   1.58   1053     71      0    405   1123   1123      0    0.0  0.000      0      0  0.000  0.000  0.000  0.000  0.000  0.000  0.000   2.57   0.00   0.00      0      0    149.6   0.85   0.00   0.60    2.24    1.25    1.39    1.30    0.19    0.00      0      0      0       0      12 18.50
 2013 162    58    29   13.0      3   1.71   1170     97      0    433   1267   1267      0    0.0  0.000      0      0  0.000  0.043  0.040  0.000  0.000  0.000  0.000   2.41   0.00   0.00      0      0    145.9   0.92   0.00   0.62    2.22    1.27    1.42    1.41    0.28    0.00      0      0      0       0      14 18.25
 2013 163    59    30   13.0      3   1.81   1273    126      0    492   1399   1399      0    0.0  0.000      0      0  0.000  0.244  0.075  0.000  0.000  0.000  0.000   3.18   0.00   0.00      0      0    142.3   0.98   0.00   0.64    4.00    1.28    1.43    1.46    0.33    0.00      0      0      0       0      16 18.60
 2013 164    60    31   14.0      3   1.98   1420    178      0    541   1598   1598      0    0.0  0.000      0      0  0.000  0.000  0.000  0.000  0.000  0.000  0.000   2.96   0.00   0.00      0      0    139.5   1.07   0.00   0.66    4.00    1.32    1.46    1.57    0.46    0.00      0      0      0       0      19 19.80
 2013 165    61    32   14.0      3   2.08   1511    217      0    622   1728   1728      0    0.0  0.000      0      0  0.067  0.378  0.000  0.000  0.000  0.000  0.000   2.79   0.00   0.00      0      0    137.5   1.12   0.00   0.68    3.98    1.42    1.57    1.82    0.78    0.00      0      0      0       0      21 19.25
 2013 166    62    33   15.0      3   2.14   1589    258      0    675   1847   1847      0    0.0  0.000      0      0  0.207  0.472  0.000  0.000  0.000  0.000  0.000   2.65   0.00   0.00      0      0    134.8   1.15   0.00   0.70    3.96    1.50    1.64    1.97    1.00    0.00      0      0      0       0      25 19.40
 2013 167    63    34   15.0      3   2.15   1643    291      0    713   1934   1934      0    0.0  0.000      0      0  0.489  0.660  0.022  0.000  0.000  0.000  0.000   2.56   0.00   0.00      0      0    130.8   1.16   0.00   0.72    3.94    1.55    1.69    2.07    1.16    0.00      0      0      0       0      28 20.45
[...]
 2014 164    67    36   16.0      3   2.92   2256    774      0    437   3031   3031      0    0.0  0.000      0      0  0.000  0.000  0.000  0.000  0.000  0.000  0.000   2.79   0.00   0.00      0      0    129.4   1.57   0.00   0.77    3.30    2.35    1.92    0.51    0.19    0.00      0      0      0       0      23 18.95
 2014 165    68    37   17.0      3   3.05   2381    934      0    451   3315   3318      0    0.0  0.000      3      0  0.000  0.000  0.000  0.000  0.000  0.000  0.000   2.74   0.00   0.00      0      3    128.0   1.60   0.00   0.79    3.38    2.42    1.96    0.53    0.21    0.00      0      0      0       0      26 19.00
 2014 166    69    38   17.0      3   3.18   2506   1138      0    468   3644   3655      0    0.0  0.000     10      0  0.000  0.000  0.000  0.000  0.000  0.000  0.000   2.70   0.00   0.00      0     10    126.7   1.60   0.00   0.81    3.46    2.51    2.02    0.55    0.23    0.00      0      0      0       0      28 19.80
 2014 167    70    39   18.0      3   3.29   2620   1350      0    484   3970   3992      0    0.0  0.000     22      0  0.000  0.000  0.000  0.000  0.000  0.000  0.000   2.66   0.00   0.01      0     22    125.6   1.60   0.00   0.83    3.54    2.59    2.06    0.57    0.26    0.01      0      0      0       0      30 17.85
 2014 168    71    40   18.0      3   3.37   2702   1522      0    496   4224   4256      0    0.0  0.000     32      0  0.000  0.000  0.000  0.000  0.000  0.000  0.000   2.61   0.00   0.01      0     32    124.9   1.60   0.00   0.85    3.60    2.64    2.08    0.58    0.28    0.02      0      0      0       0      33 17.85
 2014 169    72    41   18.0      3   3.46   2787   1710      0    510   4497   4548      0    0.0  0.000     51      0  0.000  0.000  0.000  0.000  0.000  0.000  0.000   2.58   0.00   0.01      0     51    124.1   1.60   0.00   0.87    3.60    2.70    2.12    0.61    0.31    0.04      0      0      0       0      35 17.60
 2014 170    73    42   19.0      3   3.55   2875   1906      0    527   4781   4864      0    0.0  0.000     83      0  0.000  0.000  0.000  0.000  0.000  0.000  0.000   2.55   0.00   0.02      0     83    123.4   1.60   0.00   0.88    3.59    2.74    2.16    0.64    0.35    0.07      0      0      0       0      38 16.85
 2014 171    74    43   19.0      3   3.62   2953   2088      0    541   5041   5160      0    0.0  0.000    119      0  0.000  0.000  0.000  0.000  0.000  0.000  0.000   2.51   0.00   0.02      0    119    122.7   1.60   0.00   0.90    3.57    2.76    2.16    0.67    0.40    0.10      0      0      0       0      40 17.60
 2014 172    75    44   20.0      3   3.69   3022   2252      0    554   5274   5431      0    0.0  0.000    158      0  0.000  0.000  0.000  0.000  0.000  0.000  0.000   2.47   0.00   0.03      0    158    122.2   1.60   0.00   0.92    3.56    2.75    2.16    0.70    0.44    0.15      0      0      0       0      43 19.40
 2014 173    76    45   20.0      3   3.77   3097   2419      0    568   5517   5742      0    0.0  0.000    225      0  0.000  0.000  0.000  0.000  0.000  0.000  0.000   2.43   0.00   0.04      0    225    121.6   1.60   0.00   0.94    3.83    2.74    2.15    0.71    0.46    0.18      0      0      0       0      46 20.01
 2014 174    77    46   20.0      3   3.82   3154   2544      0    578   5698   5974      0    0.0  0.000    277      0  0.000  0.000  0.000  0.000  0.000  0.000  0.000   2.39   0.00   0.05      0    277    121.2   1.60   0.00   0.96    4.00    2.73    2.14    0.72    0.47    0.20      0      0      0       0      49 19.05
 2014 175    78    47   20.0      3   3.90   3237   2661      0    596   5898   6315      0    0.0  0.000    417      0  0.000  0.000  0.000  0.000  0.000  0.000  0.000   2.38   0.00   0.07      0    417    120.5   1.60   0.00   0.98    4.00    2.82    2.14    0.74    0.49    0.24      0      0      0       0      51 18.95
 2014 176    79    48   20.0      3   3.97   3310   2753      0    610   6062   6612      0    0.0  0.000    550      0  0.000  0.000  0.000  0.000  0.000  0.000  0.000   2.34   0.00   0.08      0    550    120.0   1.60   0.00   1.00    4.00    2.91    2.13    0.74    0.50    0.26      0      0      0       0      54 18.15
 2014 177    80    49   20.0      3   4.05   3389   2820      0    625   6208   6934      0    0.0  0.000    726      0  0.000  0.000  0.000  0.000  0.000  0.000  0.000   2.31   0.00   0.10      0    726    119.5   1.60   0.00   1.00    4.00    3.03    2.14    0.75    0.51    0.28      0      0      0       0      57 18.65
 2014 178    81    50   20.0      4   3.86   3354   2939      0    635   6293   7219      0    0.0  0.000    927      0  0.000  0.000  0.000  0.000  0.000  0.000  0.000   2.30   0.00   0.13      0    927    115.0   1.60   0.00   1.00    4.00    3.12    2.14    0.75    0.52    0.30      0      0      0       0      61 18.20
 2014 179    82    51   20.0      4   3.84   3316   3047      0    647   6363   7530      0    0.0  0.000   1167      0  0.000  0.000  0.000  0.000  0.000  0.000  0.000   2.27   0.00   0.15      0   1167    115.7   1.60   0.00   1.00    4.00    3.21    2.15    0.76    0.53    0.31      0      0      0       0      61 18.95
 2014 180    83    52   20.0      4   3.82   3275   3130      0    658   6405   7808      0    0.0  0.000   1404      0  0.000  0.000  0.000  0.000  0.000  0.000  0.000   2.26   0.00   0.18      0   1404    116.6   1.60   0.00   1.00    4.00    3.30    2.15    0.76    0.54    0.33      0      0      0       0      61 19.05
 2014 181    84    53   20.0      4   3.80   3230   3184      0    665   6414   8005      0    0.0  0.000   1591      0  0.000  0.000  0.000  0.000  0.000  0.000  0.000   2.25   0.00   0.20      0   1591    117.6   1.60   0.00   1.00    4.00    3.35    2.18    0.76    0.54    0.34      0      0      0       0      61 16.90
 2014 182    85    54   20.0      4   3.78   3183   3232      0    673   6416   8206      0    0.0  0.000   1790      0  0.000  0.000  0.000  0.000  0.000  0.000  0.000   2.25   0.00   0.22      0   1790    118.8   1.60   0.00   1.00    4.00    3.40    2.21    0.77    0.54    0.34      0      0      0       0      61 17.80
 2014 183    86    55   20.0      4   3.76   3133   3291      0    684   6424   8492      0    0.0  0.000   2068      0  0.000  0.000  0.000  0.000  0.000  0.000  0.000   2.25   0.00   0.24      0   2068    120.1   1.60   0.00   1.00    4.00    3.48    2.25    0.77    0.55    0.36      0      0      0       0      61 18.50
 2014 184    87    56   20.0      4   3.74   3080   3340      0    694   6419   8750      0    0.0  0.000   2330      0  0.000  0.000  0.000  0.000  0.000  0.000  0.000   2.25   0.00   0.27      0   2330    121.6   1.60   0.00   1.00    4.00    3.54    2.29    0.77    0.55    0.37      0      0      0       0      61 18.80
 2014 185    88    57   20.0      4   3.72   3023   3385      0    704   6408   9002      0    0.0  0.000   2594      0  0.000  0.000  0.000  0.000  0.000  0.000  0.000   2.26   0.00   0.29      0   2594    123.2   1.60   0.00   1.00    4.00    3.61    2.33    0.77    0.56    0.38      0      0      0       0      61 19.40
 2014 186    89    58   20.0      4   3.70   2963   3440      0    718   6403   9344      0    0.0  0.000   2942      0  0.000  0.000  0.000  0.000  0.000  0.000  0.000   2.26   0.00   0.31      0   2942    125.0   1.60   0.00   1.00    4.00    3.70    2.38    0.78    0.56    0.39      0      0      0       0      61 20.04
 2014 187    90    59   20.0      5   3.64   2963   3440    145    771   6403   9489   2736    5.3  0.015   3086      6  0.000  0.000  0.000  0.000  0.000  0.000  0.000   2.22   4.68   0.33      0   3086    122.8   1.60   0.00   1.00    4.00    4.00    2.65    0.80    0.59    0.44      0      0      0       0      61 20.50
 2014 188    91    60   20.0      5   3.63   2963   3440    303    797   6403   9648   2736   11.1  0.031   3245      6  0.000  0.000  0.000  0.000  0.000  0.000  0.000   2.17   9.35   0.34      0   3245    122.6   1.60   0.00   1.00    4.00    4.00    2.79    0.81    0.60    0.47      0      0      0       0      61 19.85
 2014 189    92    61   20.0      5   3.62   2963   3440    481    809   6403   9826   2736   17.6  0.049   3423      6  0.000  0.000  0.000  0.000  0.000  0.000  0.000   2.13  14.06   0.35      0   3423    122.3   1.60   0.00   1.00    4.00    4.00    2.86    0.81    0.61    0.48      0      0      0       0      61 18.45
 2014 190    93    62   20.0      5   3.61   2963   3440    648    860   6403   9992   2736   23.7  0.065   3590      6  0.000  0.000  0.000  0.000  0.000  0.000  0.000   2.08  18.05   0.36      0   3590    121.9   1.60   0.00   1.00    4.00    4.00    3.12    0.83    0.63    0.53      0      0      0       0      61 19.42
 2014 191    94    63   20.0      5   3.60   2963   3440    826    885   6403  10170   2736   30.2  0.081   3768      6  0.000  0.000  0.000  0.000  0.000  0.000  0.000   2.03  21.92   0.37      0   3768    121.5   1.60   0.00   1.00    4.00    4.00    3.26    0.84    0.64    0.55      0      0      0       0      61 18.60
 2014 192    95    64   20.0      5   3.59   2963   3440   1004    887   6403  10348   2736   36.7  0.097   3946      6  0.000  0.000  0.000  0.000  0.000  0.000  0.000   1.98  25.44   0.38      0   3946    121.1   1.60   0.00   1.00    4.00    4.00    3.27    0.84    0.64    0.55      0      0      0       0      61 17.50
 2014 193    96    65   20.0      5   3.57   2963   3440   1182    920   6403  10526   2736   43.2  0.112   4123      6  0.000  0.000  0.000  0.000  0.000  0.000  0.000   1.94  28.66   0.39      0   4123    120.6   1.60   0.00   1.00    4.00    4.00    3.45    0.85    0.66    0.58      0      0      0       0      61 17.95
 2014 194    97    66   20.0      5   3.55   2963   3440   1352    977   6403  10696   2736   49.4  0.126   4293      6  0.000  0.004  0.000  0.000  0.000  0.000  0.000   1.89  31.48   0.40      0   4293    119.9   1.60   0.00   1.00    4.00    4.00    3.79    0.88    0.69    0.64      0      0      0       0      61 19.35
 2014 195    98    67   20.0      5   3.53   2963   3440   1530   1031   6403  10874   2736   55.9  0.141   4471      6  0.000  0.000  0.000  0.000  0.000  0.000  0.000   1.84  34.21   0.41      0   4471    119.3   1.60   0.00   1.00    4.00    4.00    4.00    0.90    0.72    0.69      0      0      0       0      61 18.65
 2014 196    99    68   20.0      5   3.51   2963   3440   1699   1073   6403  11043   2736   62.1  0.154   4640      6  0.000  0.000  0.000  0.000  0.000  0.000  0.000   1.79  36.60   0.42      0   4640    118.5   1.60   0.00   1.00    4.00    4.00    4.00    0.92    0.74    0.73      0      0      0       0      61 19.40
 2014 197   100    69   20.0      5   3.48   2963   3440   1842   1106   6403  11186   2736   67.3  0.165   4784      6  0.000  0.000  0.000  0.000  0.000  0.000  0.000   1.76  38.50   0.43      0   4784    117.5   1.60   0.00   1.00    4.00    4.00    4.00    0.93    0.76    0.76      0      0      0       0      61 20.48
 2014 198   101    70   20.0      5   3.45   2963   3440   2002   1139   6403  11346   2736   73.2  0.176   4944      6  0.000  0.000  0.000  0.000  0.000  0.000  0.000   1.71  40.50   0.44      0   4944    116.5   1.60   0.00   1.00    4.00    4.00    4.00    0.95    0.78    0.79      0      0      0       0      61 19.80
 2014 199   102    71   20.0      5   3.42   2963   3440   2155   1200   6403  11500   2736   78.8  0.187   5097      6  0.000  0.000  0.000  0.000  0.000  0.000  0.000   1.67  42.29   0.44      0   5097    115.3   1.60   0.00   1.00    3.99    4.00    4.00    0.98    0.81    0.86      0      0      0       0      61 20.06
 2014 200   103    72   20.0      5   3.38   2963   3440   2311   1240   6403  11655   2736   84.5  0.198   5253      6  0.000  0.000  0.000  0.000  0.000  0.000  0.000   1.63  44.00   0.45      0   5253    114.1   1.60   0.00   1.00    3.99    4.00    4.00    1.00    0.83    0.90      0      0      0       0      61 20.00
 2014 201   104    73   20.0      5   3.34   2963   3440   2484   1263   6403  11829   2736   90.8  0.210   5426      6  0.000  0.000  0.000  0.000  0.000  0.000  0.000   1.48  45.79   0.46      0   5426    112.7   1.60   0.00   1.00    3.99    4.00    4.00    1.00    0.85    0.92      0      0      0       0      67 19.20
 2014 202   105    74   20.0      5   3.30   2963   3440   2643   1313   6403  11988   2736   96.6  0.221   5585      6  0.000  0.000  0.000  0.000  0.000  0.000  0.000   1.45  47.33   0.47      0   5585    111.2   1.60   0.00   1.00    4.00    4.00    4.00    1.03    0.88    0.97      0      0      0       0      73 19.68
 2014 203   106    75   20.0      5   3.25   2963   3440   2791   1376   6403  12136   2736  102.0  0.230   5733      6  0.000  0.000  0.000  0.000  0.000  0.000  0.000   1.43  48.69   0.47      0   5733    109.5   1.60   0.00   1.00    4.00    4.00    4.00    1.06    0.91    1.03      0      0      0       0      80 20.30
 2014 204   107    76   20.0      5   3.19   2963   3440   2957   1431   6403  12301   2736  108.1  0.240   5899      6  0.000  0.138  0.000  0.000  0.000  0.000  0.000   1.40  50.13   0.48      0   5899    107.8   1.60   0.00   1.00    3.98    4.00    4.00    1.09    0.94    1.09      0      0      0       0      87 19.55
 2014 205   108    77   20.0      5   3.14   2963   3440   3105   1481   6403  12449   2736  113.5  0.249   6046      6  0.000  0.000  0.000  0.000  0.000  0.000  0.000   1.37  51.35   0.49      0   6046    105.8   1.60   0.00   1.00    3.97    4.00    4.00    1.11    0.98    1.14      0      0      0       0      94 20.18
 2014 206   109    78   20.0      5   3.07   2963   3440   3267   1539   6403  12611   2736  119.4  0.259   6209      6  0.000  0.000  0.000  0.000  0.000  0.000  0.000   1.35  52.62   0.49      0   6209    103.8   1.60   0.00   1.00    3.95    4.00    4.00    1.14    1.01    1.20      0      0      0       0     101 19.61
 2014 207   110    79   20.0      5   3.01   2963   3440   3425   1568   6403  12769   2736  125.2  0.268   6367      6  0.000  0.000  0.000  0.000  0.000  0.000  0.000   1.31  53.79   0.50      0   6367    101.5   1.60   0.00   1.00    3.94    4.00    4.00    1.15    1.03    1.24      0      0      0       0     109 19.88
 2014 208   111    80   20.0      5   2.94   2963   3440   3597   1588   6403  12941   2736  131.5  0.278   6539      6  0.000  0.000  0.000  0.000  0.000  0.000  0.000   1.28  55.01   0.51      0   6539     99.2   1.60   0.00   1.00    3.92    4.00    4.00    1.16    1.04    1.26      0      0      0       0     117 19.25
 2014 209   112    81   20.0      5   2.86   2963   3440   3747   1638   6403  13092   2736  136.9  0.286   6689      6  0.000  0.122  0.000  0.000  0.000  0.000  0.000   1.26  56.02   0.51      0   6689     96.6   1.60   0.00   1.00    3.90    4.00    4.00    1.19    1.07    1.32      0      0      0       0     125 19.96
 2014 210   113    82   20.0      5   2.78   2963   3440   3900   1688   6403  13244   2736  142.5  0.294   6841      6  0.000  0.000  0.000  0.000  0.000  0.000  0.000   1.24  57.00   0.52      0   6841     93.8   1.60   0.00   1.00    3.89    4.00    4.00    1.22    1.11    1.37      0      0      0       0     133 20.04
 2014 211   114    83   20.0      5   2.70   2963   3440   4072   1736   6403  13416   2736  148.8  0.304   7014      6  0.000  0.000  0.000  0.000  0.000  0.000  0.000   1.22  58.06   0.52      0   7014     91.0   1.60   0.00   1.00    3.87    4.00    4.00    1.24    1.14    1.43      0      0      0       0     141 19.25
 2014 212   115    84   20.0      5   2.60   2963   3440   4227   1772   6403  13572   2736  154.5  0.311   7169      6  0.000  0.000  0.000  0.000  0.000  0.000  0.000   1.19  58.97   0.53      0   7169     87.9   1.60   0.00   1.00    3.86    4.00    4.00    1.26    1.16    1.47      0      0      0       0     150 19.92
 2014 213   116    85   20.0      5   2.51   2963   3440   4392   1811   6403  13736   2736  160.5  0.320   7334      6  0.000  0.000  0.000  0.000  0.000  0.000  0.000   1.17  59.89   0.53      0   7334     84.7   1.60   0.00   1.00    3.84    4.00    4.00    1.28    1.19    1.52      0      0      0       0     159 19.34
 2014 214   117    86   20.0      5   2.41   2963   3440   4560   1836   6403  13904   2736  166.6  0.328   7502      6  0.000  0.000  0.000  0.000  0.000  0.000  0.000   1.14  60.78   0.54      0   7502     81.3   1.60   0.00   1.00    3.83    4.00    4.00    1.30    1.21    1.55      0      0      0       0     168 19.45
 2014 215   118    87   20.0      5   2.31   2963   3440   4738   1858   6403  14082   2736  173.1  0.336   7679      6  0.000  0.000  0.000  0.000  0.000  0.000  0.000   1.12  61.69   0.55      0   7679     77.9   1.60   0.00   1.00    3.81    4.00    4.00    1.31    1.22    1.58      0      0      0       0     177 18.20
 2014 216   119    88   20.0      5   2.20   2963   3440   4909   1892   6403  14253   2736  179.4  0.344   7851      6  0.000  0.000  0.000  0.000  0.000  0.000  0.000   1.10  62.53   0.55      0   7851     74.1   1.60   0.00   1.00    3.79    4.00    4.00    1.33    1.25    1.62      0      0      0       0     186 19.23
 2014 217   120    89   20.0      5   2.09   2963   3384   5087   1883   6347  14376   2736  185.9  0.354   8028      6  0.000  0.000  0.000  0.000  0.000  0.000  0.000   1.06  63.36   0.56      0   8028     70.7   1.60   0.00   1.00    3.79    4.00    4.00    1.33    1.25    1.62      0      0      0       0     186 16.75
 2014 218   121    90   20.0      5   1.97   2963   3439   5261   1901   6402  14605   2736  192.3  0.360   8203      6  0.000  0.000  0.000  0.000  0.000  0.000  0.000   1.05  64.14   0.56      0   8203     66.6   1.60   0.00   1.00    3.78    4.00    4.00    1.34    1.26    1.65      0      0      0       0     196 19.15
 2014 219   122    91   20.0      5   1.84   2963   3440   5411   1917   6403  14756   2736  197.8  0.367   8353      6  0.000  0.000  0.000  0.000  0.000  0.000  0.000   1.03  64.78   0.57      0   8353     62.0   1.60   0.00   1.00    3.76    4.00    4.00    1.35    1.27    1.67      0      0      0       0     205 20.20
 2014 220   123    92   20.0      5   1.70   2963   3440   5574   1936   6403  14918   2736  203.7  0.374   8515      6  0.000  0.000  0.000  0.000  0.000  0.000  0.000   1.01  65.45   0.57      0   8515     57.3   1.60   0.00   1.00    3.74    4.00    4.00    1.36    1.29    1.70      0      0      0       0     215 19.70
 2014 221   124    93   20.0      5   1.70   2963   3440   5574   1936   6403  14918   2736  203.7  0.374   8515      6  0.000  0.000  0.000  0.000  0.000  0.000  0.000   1.01  65.45   0.57      0   8515     57.3   1.60   0.00   1.00    3.72    4.00    4.00    1.37    1.30    1.72      0      0      0       0     215 20.04
 2014 222   125    94   20.0      5   1.70   2963   3440   5574   1936   6403  14918   2736  203.7  0.374   8515      6  0.000  0.000  0.000  0.000  0.000  0.000  0.000   1.01  65.45   0.57      0   8515     57.3   1.60   0.00   1.00    3.71    4.00    4.00    1.38    1.32    1.75      0      0      0       0     215 20.12
 2014 223   126    95   20.0      5   1.70   2963   3440   5574   1936   6403  14918   2736  203.7  0.374   8515      6  0.000  0.000  0.000  0.000  0.000  0.000  0.000   1.01  65.45   0.57      0   8515     57.3   1.60   0.00   1.00    3.69    4.00    4.00    1.39    1.33    1.78      0      0      0       0     215  0.00
 2014 224   127    96   20.0      5   1.70   2963   3440   5574   1936   6403  14918   2736  203.7  0.374   8515      6  0.000  0.000  0.000  0.000  0.000  0.000  0.000   1.01  65.45   0.57      0   8515     57.3   1.60   0.00   1.00    3.68    4.00    4.00    1.41    1.35    1.80      0      0      0       0     215 20.28
