*GROWTH ASPECTS OUTPUT FILE

*DSSAT Cropping System Model Ver. 4.6.1.000 -release      MAY 05, 2017; 11:09:11
                                                                                
*RUN   1        : P1                        MZCER046 1\000001    1              
 MODEL          : MZCER046 - Maize                                              
 EXPERIMENT     : 1\000001 BN Calibracion Cerete 2013                           
 DATA PATH      : C:\L\0\00000                                                  
 TREATMENT  1   : P1                        MZCER046                            
  
!                                                                                                                                                                                                                                      Root Dens. (cm/cm3) by soil depth (cm):
!                                                                                                                                                                                                                                      0-5    5-15   15-26   26-51   51-75  75-100
@YEAR DOY   DAS   DAP   L#SD   GSTD   LAID   LWAD   SWAD   GWAD   RWAD   VWAD   CWAD   G#AD   GWGD   HIAD   PWAD   P#AD   WSPD   WSGD   NSTD   EWSD  PST1A  PST2A   KSTD   LN%D   SH%D   HIPD   PWDD   PWTD     SLAD   CHTD   CWID   RDPD    RL1D    RL2D    RL3D    RL4D    RL5D    RL6D   CDAD   LDAD   SDAD   SNW0C   SNW1C  DTTD
 2013 127    16     0    0.0      0   0.00      0      0      0      0      0      0      0    0.0  0.000      0      0  0.000  0.000  0.000  0.000  0.000  0.000  0.000   0.00   0.00   0.00      0      0      0.0   0.00   0.00   0.05    0.00    0.00    0.00    0.00    0.00    0.00      0      0      0       0       0 20.20
 2013 128    17     1    0.0      0   0.00      0      0      0      0      0      0      0    0.0  0.000      0      0  0.000  0.000  0.000  0.000  0.000  0.000  0.000   0.00   0.00   0.00      0      0      0.0   0.00   0.00   0.08    0.00    0.00    0.00    0.00    0.00    0.00      0      0      0       0       0 21.03
 2013 129    18     2    0.0      0   0.00      0      0      0      0      0      0      0    0.0  0.000      0      0  0.000  0.000  0.000  0.000  0.000  0.000  0.000   0.00   0.00   0.00      0      0      0.0   0.00   0.00   0.11    0.00    0.00    0.00    0.00    0.00    0.00      0      0      0       0       0 21.12
 2013 130    19     3    0.0      0   0.00      0      0      0      0      0      0      0    0.0  0.000      0      0  0.000  0.000  0.000  0.000  0.000  0.000  0.000   0.00   0.00   0.00      0      0      0.0   0.00   0.00   0.14    0.00    0.00    0.00    0.00    0.00    0.00      0      0      0       0       0 20.06
 2013 131    20     4    0.0      0   0.00      0      0      0      0      0      0      0    0.0  0.000      0      0  0.000  0.000  0.000  0.000  0.000  0.000  0.000   0.00   0.00   0.00      0      0      0.0   0.00   0.00   0.18    0.00    0.00    0.00    0.00    0.00    0.00      0      0      0       0       0 21.63
 2013 132    21     5    2.0      1   0.01     12     12      0     12     25     25      0    0.0  0.000      0      0  0.000  0.000  0.012  0.000  0.000  0.000  0.000   4.40   0.00   0.00      0      0     41.1   0.00   0.00   0.20    0.25    0.12    0.03    0.00    0.00    0.00      0      0      0       0       0 22.42
 2013 133    22     6    2.0      1   0.01     12     12      0     13     25     25      0    0.0  0.000      0      0  0.000  0.000  0.006  0.000  0.000  0.000  0.000   4.40   0.00   0.00      0      0     82.8   0.01   0.00   0.22    0.25    0.13    0.03    0.00    0.00    0.00      0      0      0       0       0 21.34
 2013 134    23     7    3.0      1   0.02     12     12      0     14     25     25      0    0.0  0.000      0      0  0.000  0.000  0.000  0.000  0.000  0.000  0.000   4.40   0.00   0.00      0      0    130.7   0.01   0.00   0.24    0.25    0.13    0.03    0.00    0.00    0.00      0      0      0       0       0 21.40
 2013 135    24     8    4.0      1   0.04     12     12      0     15     25     25      0    0.0  0.000      0      0  0.000  0.000  0.000  0.000  0.000  0.000  0.000   4.40   0.00   0.00      0      0    301.5   0.02   0.00   0.26    0.27    0.14    0.04    0.00    0.00    0.00      0      0      0       0       0 21.46
 2013 136    25     9    4.0      1   0.06     20     12      0     16     33     33      0    0.0  0.000      0      0  0.000  0.000  0.000  0.000  0.000  0.000  0.000   3.34   0.00   0.00      0      0    310.9   0.03   0.00   0.28    0.27    0.15    0.05    0.00    0.00    0.00      0      0      0       0       0 21.53
 2013 137    26    10    5.0      1   0.09     33     12      0     17     46     46      0    0.0  0.000      0      0  0.000  0.000  0.000  0.000  0.000  0.000  0.000   2.94   0.00   0.00      0      0    280.9   0.05   0.00   0.29    0.28    0.16    0.05    0.00    0.00    0.00      0      0      0       0       0 21.45
 2013 138    27    11    5.0      1   0.13     49     12      0     19     61     61      0    0.0  0.000      0      0  0.000  0.000  0.000  0.000  0.000  0.000  0.000   3.03   0.00   0.00      0      0    260.1   0.07   0.00   0.30    0.30    0.17    0.07    0.00    0.00    0.00      0      0      0       0       0 20.02
 2013 139    28    12    6.0      1   0.17     64     12      0     22     77     77      0    0.0  0.000      0      0  0.000  0.000  0.000  0.000  0.000  0.000  0.000   3.15   0.00   0.00      0      0    262.2   0.09   0.00   0.31    0.32    0.19    0.09    0.00    0.00    0.00      0      0      0       0       0 20.64
 2013 140    29    13    6.0      1   0.20     79     12      0     24     91     91      0    0.0  0.000      0      0  0.000  0.000  0.000  0.425  0.000  0.000  0.000   3.29   0.00   0.00      0      0    251.6   0.11   0.00   0.33    0.33    0.21    0.10    0.00    0.00    0.00      0      0      0       0       0 21.09
 2013 141    30    14    7.0      2   0.23     95     12      0     29    108    108      0    0.0  0.000      0      0  0.000  0.000  0.000  0.452  0.000  0.000  0.000   3.23   0.00   0.00      0      0    241.6   0.12   0.00   0.35    0.37    0.24    0.13    0.00    0.00    0.00      0      0      0       0       0 20.90
 2013 142    31    15    7.0      2   0.26    109     12      0     35    121    121      0    0.0  0.000      0      0  0.000  0.000  0.010  0.623  0.000  0.000  0.000   3.46   0.00   0.00      0      0    234.9   0.14   0.00   0.38    0.41    0.28    0.17    0.01    0.00    0.00      0      0      0       0       1 20.67
 2013 143    32    16    8.0      2   0.29    128     12      0     47    141    141      0    0.0  0.000      0      0  0.000  0.253  0.000  0.516  0.000  0.000  0.000   3.31   0.00   0.00      0      0    226.9   0.16   0.00   0.40    0.50    0.37    0.24    0.02    0.00    0.00      0      0      0       0       1 20.17
 2013 144    33    17    8.0      2   0.35    159     12      0     52    172    172      0    0.0  0.000      0      0  0.000  0.000  0.000  0.244  0.000  0.000  0.000   3.11   0.00   0.00      0      0    216.9   0.19   0.00   0.43    0.53    0.40    0.27    0.03    0.00    0.00      0      0      0       0       1 20.61
 2013 145    34    18    9.0      2   0.43    212     12      0     63    224    224      0    0.0  0.000      0      0  0.000  0.000  0.000  0.060  0.000  0.000  0.000   3.78   0.00   0.00      0      0    204.5   0.23   0.00   0.45    0.61    0.47    0.33    0.04    0.00    0.00      0      0      0       0       1 20.34
 2013 146    35    19    9.0      2   0.54    281     12      0     83    293    293      0    0.0  0.000      0      0  0.000  0.000  0.000  0.000  0.000  0.000  0.000   3.74   0.00   0.00      0      0    193.0   0.29   0.00   0.48    0.74    0.60    0.44    0.07    0.00    0.00      0      0      0       0       2 21.30
 2013 147    36    20   10.0      2   0.64    345     12      0     94    357    357      0    0.0  0.000      0      0  0.000  0.000  0.000  0.000  0.000  0.000  0.000   3.69   0.00   0.00      0      0    184.8   0.34   0.00   0.50    0.81    0.67    0.50    0.08    0.00    0.00      0      0      0       0       2 20.21
 2013 148    37    21   10.0      3   0.75    423     13      0    124    436    436      0    0.0  0.000      0      0  0.000  0.000  0.000  0.067  0.000  0.000  0.000   3.61   0.00   0.00      0      0    176.8   0.40   0.00   0.52    1.01    0.86    0.65    0.13    0.00    0.00      0      0      0       0       3 19.88
 2013 149    38    22   11.0      3   0.86    502     14      0    127    516    516      0    0.0  0.000      0      0  0.000  0.000  0.000  0.034  0.000  0.000  0.000   3.54   0.00   0.00      0      0    171.6   0.46   0.00   0.55    1.03    0.88    0.67    0.14    0.00    0.00      0      0      0       0       3 20.14
 2013 150    39    23   11.0      3   1.00    603     18      0    170    621    621      0    0.0  0.000      0      0  0.000  0.000  0.000  0.052  0.000  0.000  0.000   3.48   0.00   0.00      0      0    165.9   0.54   0.00   0.57    1.31    1.14    0.88    0.20    0.02    0.00      0      0      0       0       4 20.00
 2013 151    40    24   12.0      3   1.10    680     23      0    173    704    704      0    0.0  0.000      0      0  0.000  0.000  0.000  0.125  0.000  0.000  0.000   3.42   0.00   0.00      0      0    162.3   0.59   0.00   0.60    1.33    1.16    0.90    0.21    0.02    0.00      0      0      0       0       5 20.05
 2013 152    41    25   12.0      3   1.28    814     38      0    210    852    852      0    0.0  0.000      0      0  0.000  0.000  0.000  0.013  0.000  0.000  0.000   3.36   0.00   0.00      0      0    157.0   0.69   0.00   0.62    1.57    1.38    1.07    0.26    0.04    0.00      0      0      0       0       5 19.90
 2013 153    42    26   13.0      3   1.45    955     60      0    251   1015   1015      0    0.0  0.000      0      0  0.000  0.000  0.000  0.013  0.000  0.000  0.000   3.30   0.00   0.00      0      0    152.3   0.78   0.00   0.65    1.82    1.62    1.25    0.32    0.08    0.00      0      0      0       0       7 20.30
 2013 154    43    27   13.0      3   1.62   1094     89      0    308   1184   1184      0    0.0  0.000      0      0  0.000  0.000  0.000  0.000  0.000  0.000  0.000   3.25   0.00   0.00      0      0    148.5   0.88   0.00   0.67    2.18    1.96    1.50    0.40    0.13    0.00      0      0      0       0       8 19.10
 2013 155    44    28   14.0      3   1.80   1238    129      0    338   1367   1367      0    0.0  0.000      0      0  0.000  0.000  0.000  0.000  0.000  0.000  0.000   3.20   0.00   0.00      0      0    145.0   0.97   0.00   0.69    2.34    2.11    1.64    0.45    0.16    0.00      0      0      0       0       9 19.30
 2013 156    45    29   14.0      3   1.98   1394    183      0    378   1577   1577      0    0.0  0.000      0      0  0.000  0.000  0.000  0.000  0.000  0.000  0.000   3.14   0.00   0.00      0      0    141.8   1.06   0.00   0.72    2.57    2.32    1.84    0.51    0.20    0.00      0      0      0       0      11 20.30
 2013 157    46    30   15.0      3   2.09   1493    225      0    445   1718   1718      0    0.0  0.000      0      0  0.000  0.000  0.000  0.352  0.000  0.000  0.000   3.09   0.00   0.00      0      0    139.9   1.13   0.00   0.74    2.93    2.66    2.15    0.61    0.28    0.00      0      0      0       0      13 19.50
 2013 158    47    31   15.0      3   2.25   1635    299      0    468   1934   1934      0    0.0  0.000      0      0  0.000  0.000  0.000  0.121  0.000  0.000  0.000   3.04   0.00   0.00      0      0    137.5   1.21   0.00   0.77    3.06    2.77    2.25    0.65    0.31    0.00      0      0      0       0      15 20.30
 2013 159    48    32   16.0      3   2.34   1718    351      0    473   2069   2069      0    0.0  0.000      0      0  0.000  0.000  0.000  0.381  0.000  0.000  0.000   2.99   0.00   0.00      0      0    136.2   1.26   0.00   0.79    3.08    2.80    2.28    0.65    0.31    0.00      0      0      0       0      17 20.45
 2013 160    49    33   16.0      3   2.46   1832    435      0    500   2267   2267      0    0.0  0.000      0      0  0.000  0.000  0.000  0.347  0.000  0.000  0.000   2.94   0.00   0.00      0      0    134.5   1.33   0.00   0.82    3.22    2.93    2.39    0.69    0.35    0.01      0      0      0       0      20 21.35
 2013 161    50    34   17.0      3   2.56   1920    510      0    507   2430   2430      0    0.0  0.000      0      0  0.000  0.000  0.000  0.260  0.000  0.000  0.000   2.89   0.00   0.00      0      0    133.3   1.38   0.00   0.84    3.26    2.95    2.41    0.70    0.35    0.01      0      0      0       0      22 19.70
 2013 162    51    35   17.0      3   2.67   2028    617      0    516   2645   2645      0    0.0  0.000      0      0  0.000  0.000  0.000  0.184  0.000  0.000  0.000   2.84   0.00   0.00      0      0    131.9   1.44   0.00   0.87    3.30    3.00    2.45    0.71    0.37    0.02      0      0      0       0      25 20.90
 2013 163    52    36   18.0      3   2.81   2158    762      0    529   2920   2920      0    0.0  0.000      0      0  0.000  0.000  0.000  0.064  0.000  0.000  0.000   2.79   0.00   0.00      0      0    130.3   1.51   0.00   0.89    3.37    3.06    2.50    0.73    0.38    0.03      0      0      0       0      27 19.90
 2013 164    53    37   18.0      3   3.01   2348    840      0    541   3188   3190      0    0.0  0.000      1      0  0.000  0.000  0.000  0.000  0.000  0.000  0.000   2.74   0.00   0.00      0      1    128.2   1.60   0.00   0.92    3.43    3.11    2.55    0.75    0.40    0.04      0      0      0       0      30 20.30
 2013 165    54    38   19.0      3   3.10   2431    940      0    549   3370   3373      0    0.0  0.000      2      0  0.000  0.000  0.000  0.000  0.000  0.000  0.000   2.69   0.00   0.00      0      2    127.3   1.60   0.00   0.94    3.46    3.14    2.57    0.75    0.41    0.05      0      0      0       0      33 20.80
 2013 166    55    39   19.0      3   3.20   2530   1099      0    561   3629   3637      0    0.0  0.000      7      0  0.000  0.000  0.000  0.000  0.000  0.000  0.000   2.65   0.00   0.00      0      7    126.3   1.60   0.00   0.96    3.52    3.19    2.61    0.77    0.42    0.06      0      0      0       0      36 19.90
 2013 167    56    40   20.0      3   3.32   2648   1319      0    578   3967   3988      0    0.0  0.000     20      0  0.000  0.000  0.000  0.000  0.000  0.000  0.000   2.61   0.00   0.01      0     20    125.2   1.60   0.00   0.99    3.60    3.26    2.67    0.79    0.44    0.08      0      0      0       0      38 20.05
 2013 168    57    41   20.0      3   3.39   2723   1480      0    588   4202   4232      0    0.0  0.000     30      0  0.000  0.000  0.000  0.000  0.000  0.000  0.000   2.56   0.00   0.01      0     30    124.5   1.60   0.00   1.00    3.65    3.31    2.70    0.80    0.45    0.10      0      0      0       0      41 20.95
 2013 169    58    42   21.0      3   3.49   2827   1709      0    606   4536   4598      0    0.0  0.000     62      0  0.000  0.000  0.000  0.000  0.000  0.000  0.000   2.53   0.00   0.01      0     62    123.6   1.60   0.00   1.00    3.74    3.38    2.75    0.83    0.47    0.12      0      0      0       0      44 20.75
 2013 170    59    43   21.0      3   3.58   2916   1909      0    621   4824   4928      0    0.0  0.000    104      0  0.000  0.000  0.000  0.000  0.000  0.000  0.000   2.50   0.00   0.02      0    104    122.9   1.60   0.00   1.00    3.81    3.44    2.80    0.85    0.49    0.15      0      0      0       0      47 18.60
 2013 171    60    44   22.0      3   3.62   2955   2014      0    627   4969   5086      0    0.0  0.000    116      0  0.000  0.000  0.000  0.000  0.000  0.000  0.000   2.44   0.00   0.02      0    116    122.6   1.60   0.00   1.00    3.84    3.46    2.81    0.85    0.50    0.16      0      0      0       0      50 20.40
 2013 172    61    45   22.0      3   3.69   3024   2165      0    639   5189   5367      0    0.0  0.000    178      0  0.000  0.109  0.000  0.000  0.000  0.000  0.000   2.42   0.00   0.03      0    178    122.0   1.60   0.00   1.00    3.90    3.51    2.84    0.87    0.51    0.18      0      0      0       0      53 20.10
 2013 173    62    46   22.0      3   3.70   3073   2223      0    691   5296   5570      0    0.0  0.000    274      0  0.217  0.478  0.000  0.000  0.000  0.000  0.000   2.42   0.00   0.05      0    274    120.3   1.60   0.00   1.00    4.00    3.71    2.99    0.94    0.57    0.25      0      0      0       0      57 20.90
 2013 174    63    47   22.0      3   3.75   3127   2312      0    699   5439   5787      0    0.0  0.000    348      0  0.000  0.300  0.000  0.000  0.000  0.000  0.000   2.35   0.00   0.06      0    348    119.9   1.60   0.00   1.00    4.00    3.75    3.01    0.95    0.58    0.26      0      0      0       0      57 21.10
 2013 175    64    48   22.0      3   3.80   3175   2405      0    707   5580   5986      0    0.0  0.000    406      0  0.000  0.000  0.000  0.000  0.000  0.000  0.000   2.29   0.00   0.07      0    406    119.6   1.60   0.00   1.00    4.00    3.78    3.03    0.96    0.59    0.28      0      0      0       0      57 19.10
 2013 176    65    49   22.0      3   3.84   3217   2484      0    713   5701   6156      0    0.0  0.000    455      0  0.000  0.000  0.000  0.000  0.000  0.000  0.000   2.25   0.00   0.07      0    455    119.3   1.60   0.00   1.00    4.00    3.80    3.04    0.97    0.60    0.29      0      0      0       0      57 19.00
 2013 177    66    50   22.0      4   3.69   3182   2621      0    727   5803   6523      0    0.0  0.000    720      0  0.000  0.000  0.000  0.000  0.000  0.000  0.000   2.31   0.00   0.11      0    720    116.0   1.60   0.00   1.00    4.00    3.86    3.08    0.99    0.62    0.31      0      0      0       0      60 20.25
 2013 178    67    51   22.0      4   3.67   3144   2696      0    735   5839   6755      0    0.0  0.000    916      0  0.000  0.000  0.000  0.000  0.000  0.000  0.000   2.30   0.00   0.14      0    916    116.7   1.60   0.00   1.00    4.00    3.89    3.11    1.00    0.63    0.33      0      0      0       0      60 21.63
 2013 179    68    52   22.0      4   3.65   3102   2748      0    741   5851   6938      0    0.0  0.000   1088      0  0.000  0.000  0.000  0.000  0.000  0.000  0.000   2.29   0.00   0.16      0   1088    117.7   1.60   0.00   1.00    4.00    3.90    3.13    1.01    0.64    0.34      0      0      0       0      60 18.55
 2013 180    69    53   22.0      4   3.63   3058   2843      0    751   5901   7216      0    0.0  0.000   1315      0  0.000  0.000  0.000  0.115  0.000  0.000  0.000   2.27   0.00   0.18      0   1315    118.8   1.60   0.00   1.00    4.00    3.94    3.17    1.02    0.65    0.36      0      0      0       0      60 18.60
 2013 181    70    54   22.0      4   3.61   3010   2910      0    762   5920   7493      0    0.0  0.000   1573      0  0.000  0.000  0.000  0.034  0.000  0.000  0.000   2.27   0.00   0.21      0   1573    120.1   1.60   0.00   1.00    4.00    3.97    3.21    1.04    0.66    0.38      0      0      0       0      60 19.60
 2013 182    71    55   22.0      4   3.59   2959   2987      0    769   5947   7698      0    0.0  0.000   1752      0  0.000  0.000  0.000  0.172  0.000  0.000  0.000   2.26   0.00   0.23      0   1752    121.4   1.60   0.00   1.00    3.99    3.99    3.24    1.05    0.68    0.39      0      0      0       0      60 21.25
 2013 183    72    56   22.0      4   3.57   2905   3077      0    780   5982   7993      0    0.0  0.000   2011      0  0.000  0.000  0.000  0.130  0.000  0.000  0.000   2.24   0.00   0.25      0   2011    123.0   1.60   0.00   1.00    4.00    4.00    3.28    1.07    0.69    0.41      0      0      0       0      60 20.20
 2013 184    73    57   22.0      4   3.55   2847   3160      0    795   6007   8351      0    0.0  0.000   2344      0  0.000  0.000  0.000  0.072  0.000  0.000  0.000   2.23   0.00   0.28      0   2344    124.8   1.60   0.00   1.00    4.00    4.00    3.33    1.09    0.70    0.43      0      0      0       0      60 20.55
 2013 185    74    58   22.0      5   3.49   2847   3160    142    842   6007   8493   2942    4.8  0.017   2487      6  0.000  0.000  0.000  0.025  0.000  0.000  0.000   2.19   5.72   0.29      0   2487    122.5   1.60   0.00   1.00    4.00    4.00    3.49    1.15    0.76    0.49      0      0      0       0      60 20.55
 2013 186    75    59   22.0      5   3.48   2847   3160    313    894   6007   8664   2942   10.7  0.036   2658      6  0.000  0.000  0.000  0.000  0.000  0.000  0.000   2.14  11.79   0.31      0   2658    122.3   1.60   0.00   1.00    4.00    4.00    3.67    1.23    0.82    0.56      0      0      0       0      60 19.25
 2013 187    76    60   22.0      5   3.47   2847   3160    463    964   6007   8814   2942   15.8  0.053   2808      6  0.000  0.000  0.000  0.000  0.000  0.000  0.000   2.10  16.51   0.32      0   2808    121.9   1.60   0.00   1.00    4.00    4.00    3.91    1.32    0.90    0.64      0      0      0       0      60 20.20
 2013 188    77    61   22.0      5   3.46   2847   3160    601    990   6007   8952   2942   20.4  0.067   2946      6  0.000  0.000  0.000  0.000  0.000  0.000  0.000   2.06  20.42   0.33      0   2946    121.5   1.60   0.00   1.00    4.00    4.00    4.00    1.35    0.93    0.68      0      0      0       0      60 20.75
 2013 189    78    62   22.0      5   3.45   2847   3160    740   1034   6007   9091   2942   25.2  0.081   3085      6  0.000  0.000  0.000  0.000  0.000  0.000  0.000   2.01  24.00   0.34      0   3085    121.0   1.60   0.00   1.00    4.00    4.00    4.00    1.41    0.98    0.74      0      0      0       0      60 20.70
 2013 190    79    63   22.0      5   3.43   2847   3160    881   1099   6007   9231   2942   29.9  0.095   3225      6  0.000  0.000  0.000  0.000  0.000  0.000  0.000   1.97  27.30   0.35      0   3225    120.4   1.60   0.00   1.00    4.00    4.00    4.00    1.49    1.04    0.81      0      0      0       0      60 20.65
 2013 191    80    64   22.0      5   3.41   2847   3160   1053   1149   6007   9404   2942   35.8  0.112   3397      6  0.000  0.000  0.000  0.000  0.000  0.000  0.000   1.92  30.99   0.36      0   3397    119.8   1.60   0.00   1.00    4.00    4.00    4.00    1.54    1.09    0.87      0      0      0       0      60 19.20
 2013 192    81    65   22.0      5   3.39   2847   3160   1223   1167   6007   9574   2942   41.5  0.128   3567      6  0.000  0.000  0.000  0.027  0.000  0.000  0.000   1.87  34.28   0.37      0   3567    119.1   1.60   0.00   1.00    4.00    4.00    4.00    1.56    1.11    0.89      0      0      0       0      60 19.30
 2013 193    82    66   22.0      5   3.37   2847   3160   1396   1227   6007   9747   2942   47.4  0.143   3740      6  0.000  0.000  0.000  0.000  0.000  0.000  0.000   1.82  37.32   0.38      0   3740    118.2   1.60   0.00   1.00    4.00    4.00    4.00    1.63    1.17    0.96      0      0      0       0      60 19.15
 2013 194    83    67   22.0      5   3.34   2847   3160   1548   1281   6007   9899   2942   52.6  0.156   3892      6  0.000  0.000  0.000  0.000  0.000  0.000  0.000   1.78  39.77   0.39      0   3892    117.3   1.60   0.00   1.00    4.00    4.00    4.00    1.70    1.23    1.02      0      0      0       0      60 20.10
 2013 195    84    68   22.0      5   3.31   2847   3160   1708   1340   6007  10059   2942   58.0  0.170   4052      6  0.000  0.000  0.000  0.000  0.000  0.000  0.000   1.73  42.15   0.40      0   4052    116.2   1.60   0.00   1.00    4.00    4.00    4.00    1.77    1.28    1.09      0      0      0       0      60 19.75
 2013 196    85    69   22.0      5   3.27   2847   3160   1852   1367   6007  10202   2942   62.9  0.181   4196      6  0.000  0.000  0.000  0.000  0.000  0.000  0.000   1.69  44.13   0.41      0   4196    115.0   1.60   0.00   1.00    4.00    4.00    4.00    1.80    1.31    1.12      0      0      0       0      60 20.50
 2013 197    86    70   22.0      5   3.24   2847   3160   1989   1414   6007  10340   2942   67.6  0.192   4334      6  0.000  0.000  0.000  0.000  0.000  0.000  0.000   1.65  45.91   0.42      0   4334    113.6   1.60   0.00   1.00    4.00    4.00    4.00    1.85    1.36    1.17      0      0      0       0      60 20.75
 2013 198    87    71   22.0      5   3.20   2847   3160   2157   1438   6007  10508   2942   73.3  0.205   4501      6  0.000  0.000  0.000  0.000  0.000  0.000  0.000   1.47  47.92   0.43      0   4501    112.2   1.60   0.00   1.00    4.00    4.00    4.00    1.88    1.38    1.20      0      0      0       0      67 19.40
 2013 199    88    72   22.0      5   3.15   2847   3160   2317   1458   6007  10668   2942   78.7  0.217   4661      6  0.000  0.000  0.000  0.029  0.000  0.000  0.000   1.44  49.71   0.44      0   4661    110.7   1.60   0.00   1.00    4.00    4.00    4.00    1.90    1.40    1.22      0      0      0       0      74 19.75
 2013 200    89    73   22.0      5   3.10   2847   3160   2494   1504   6007  10845   2942   84.7  0.230   4838      6  0.000  0.000  0.000  0.000  0.000  0.000  0.000   1.43  51.54   0.45      0   4838    109.0   1.60   0.00   1.00    4.00    4.00    4.00    1.95    1.45    1.27      0      0      0       0      82 18.90
 2013 201    90    74   22.0      5   3.05   2847   3160   2635   1547   6007  10986   2942   89.5  0.240   4979      6  0.000  0.000  0.000  0.000  0.000  0.000  0.000   1.39  52.92   0.45      0   4979    107.1   1.60   0.00   1.00    4.00    4.00    4.00    2.00    1.49    1.32      0      0      0       0      89 20.60
 2013 202    91    75   22.0      5   2.99   2847   3160   2794   1598   6007  11145   2942   94.9  0.251   5138      6  0.000  0.000  0.000  0.000  0.000  0.000  0.000   1.37  54.37   0.46      0   5138    105.1   1.60   0.00   1.00    4.00    4.00    4.00    2.06    1.54    1.38      0      0      0       0      97 19.80
 2013 203    92    76   22.0      5   2.93   2847   3160   2950   1623   6007  11301   2942  100.3  0.261   5295      6  0.000  0.000  0.000  0.000  0.000  0.000  0.000   1.33  55.73   0.47      0   5295    102.9   1.60   0.00   1.00    4.00    4.00    4.00    2.08    1.57    1.40      0      0      0       0     105 19.90
 2013 204    93    77   22.0      5   2.86   2847   3160   3081   1672   6007  11432   2942  104.7  0.269   5425      6  0.000  0.000  0.000  0.000  0.000  0.000  0.000   1.30  56.79   0.47      0   5425    100.4   1.60   0.00   1.00    4.00    4.00    4.00    2.14    1.62    1.46      0      0      0       0     113 21.10
 2013 205    94    78   22.0      5   2.78   2847   3160   3208   1729   6007  11559   2942  109.0  0.278   5552      6  0.000  0.225  0.000  0.000  0.000  0.000  0.000   1.28  57.78   0.48      0   5552     97.6   1.60   0.00   1.00    4.00    4.00    4.00    2.20    1.67    1.52      0      0      0       0     121 21.25
 2013 206    95    79   22.0      5   2.70   2847   3160   3334   1765   6007  11685   2942  113.3  0.285   5678      6  0.072  0.382  0.000  0.000  0.000  0.000  0.000   1.24  58.71   0.49      0   5678     94.7   1.60   0.00   1.00    4.00    4.00    4.00    2.24    1.71    1.56      0      0      0       0     130 21.05
 2013 207    96    80   22.0      5   2.61   2847   3160   3483   1790   6007  11834   2942  118.4  0.294   5827      6  0.000  0.000  0.000  0.000  0.000  0.000  0.000   1.21  59.77   0.49      0   5827     91.7   1.60   0.00   1.00    4.00    4.00    4.00    2.27    1.73    1.59      0      0      0       0     139 20.25
 2013 208    97    81   22.0      5   2.53   2847   3160   3659   1790   6007  12010   2942  124.4  0.305   6003      6  0.000  0.000  0.000  0.077  0.000  0.000  0.000   1.19  60.95   0.50      0   6003     88.8   1.60   0.00   1.00    4.00    4.00    4.00    2.27    1.73    1.59      0      0      0       0     148 18.65
 2013 209    98    82   22.0      5   2.43   2847   3160   3786   1839   6007  12137   2942  128.7  0.312   6130      6  0.000  0.000  0.000  0.123  0.000  0.000  0.000   1.17  61.76   0.51      0   6130     85.2   1.60   0.00   1.00    4.00    4.00    4.00    2.32    1.78    1.64      0      0      0       0     157 21.25
 2013 210    99    83   22.0      5   2.33   2847   3160   3950   1865   6007  12301   2942  134.3  0.321   6295      6  0.000  0.000  0.000  0.160  0.000  0.000  0.000   1.15  62.76   0.51      0   6295     81.7   1.60   0.00   1.00    4.00    4.00    4.00    2.35    1.80    1.67      0      0      0       0     166 19.55
 2013 211   100    84   22.0      5   2.22   2847   3160   4126   1877   6007  12477   2942  140.2  0.331   6470      6  0.000  0.000  0.000  0.128  0.000  0.000  0.000   1.12  63.77   0.52      0   6470     78.1   1.60   0.00   1.00    4.00    4.00    4.00    2.37    1.82    1.68      0      0      0       0     175 19.05
 2013 212   101    85   22.0      5   2.11   2847   3160   4277   1896   6007  12628   2942  145.4  0.339   6621      6  0.000  0.000  0.000  0.096  0.000  0.000  0.000   1.10  64.60   0.52      0   6621     74.0   1.60   0.00   1.00    4.00    4.00    4.00    2.39    1.83    1.70      0      0      0       0     185 20.15
 2013 213   102    86   22.0      5   1.98   2847   3160   4408   1904   6007  12759   2942  149.8  0.346   6753      6  0.000  0.000  0.000  0.133  0.000  0.000  0.000   1.06  65.28   0.53      0   6753     69.6   1.60   0.00   1.00    4.00    4.00    4.00    2.39    1.84    1.71      0      0      0       0     194 21.05
 2013 214   103    87   22.0      5   1.85   2847   3160   4567   1919   6007  12918   2942  155.2  0.354   6912      6  0.000  0.000  0.000  0.041  0.000  0.000  0.000   1.05  66.08   0.54      0   6912     65.1   1.60   0.00   1.00    4.00    4.00    4.00    2.41    1.86    1.73      0      0      0       0     204 19.80
 2013 215   104    88   22.0      5   1.71   2847   3160   4702   1961   6007  13053   2942  159.8  0.360   7046      6  0.000  0.000  0.000  0.029  0.000  0.000  0.000   1.03  66.73   0.54      0   7046     60.2   1.60   0.00   1.00    4.00    4.00    4.00    2.46    1.90    1.78      0      0      0       0     213 20.90
 2013 216   105    89   22.0      5   1.58   2847   3160   4869   1969   6007  13219   2942  165.5  0.368   7213      6  0.000  0.000  0.000  0.000  0.000  0.000  0.000   1.01  67.50   0.55      0   7213     55.3   1.60   0.00   1.00    4.00    4.00    4.00    2.46    1.90    1.78      0      0      0       0     223 19.45
 2013 217   106    90   22.0      5   1.58   2847   3160   4869   1969   6007  13219   2942  165.5  0.368   7213      6  0.000  0.000  0.000  0.000  0.000  0.000  0.000   1.01  67.50   0.55      0   7213     55.3   1.60   0.00   1.00    4.00    4.00    4.00    2.47    1.91    1.79      0      0      0       0     223 19.05
 2013 218   107    91   22.0      5   1.58   2847   3160   4869   1969   6007  13219   2942  165.5  0.368   7213      6  0.000  0.000  0.000  0.000  0.000  0.000  0.000   1.01  67.50   0.55      0   7213     55.3   1.60   0.00   1.00    4.00    4.00    4.00    2.48    1.92    1.80      0      0      0       0     223 20.60
 2013 219   108    92   22.0      5   1.58   2847   3160   4869   1969   6007  13219   2942  165.5  0.368   7213      6  0.000  0.000  0.000  0.000  0.000  0.000  0.000   1.01  67.50   0.55      0   7213     55.3   1.60   0.00   1.00    4.00    4.00    4.00    2.49    1.92    1.81      0      0      0       0     223  0.00

*DSSAT Cropping System Model Ver. 4.6.1.000 -release      MAY 05, 2017; 11:09:11
                                                                                
*RUN   2        : P2                        MZCER046 1\000001    2              
 MODEL          : MZCER046 - Maize                                              
 EXPERIMENT     : 1\000001 BN Calibracion Cerete 2013                           
 DATA PATH      : C:\L\0\00000                                                  
 TREATMENT  2   : P2                        MZCER046                            
  
!                                                                                                                                                                                                                                      Root Dens. (cm/cm3) by soil depth (cm):
!                                                                                                                                                                                                                                      0-5    5-15   15-26   26-51   51-75  75-100
@YEAR DOY   DAS   DAP   L#SD   GSTD   LAID   LWAD   SWAD   GWAD   RWAD   VWAD   CWAD   G#AD   GWGD   HIAD   PWAD   P#AD   WSPD   WSGD   NSTD   EWSD  PST1A  PST2A   KSTD   LN%D   SH%D   HIPD   PWDD   PWTD     SLAD   CHTD   CWID   RDPD    RL1D    RL2D    RL3D    RL4D    RL5D    RL6D   CDAD   LDAD   SDAD   SNW0C   SNW1C  DTTD
 2013 141    16     0    0.0      0   0.00      0      0      0      0      0      0      0    0.0  0.000      0      0  0.000  0.000  0.000  0.000  0.000  0.000  0.000   0.00   0.00   0.00      0      0      0.0   0.00   0.00   0.05    0.00    0.00    0.00    0.00    0.00    0.00      0      0      0       0       0 20.90
 2013 142    17     1    0.0      0   0.00      0      0      0      0      0      0      0    0.0  0.000      0      0  0.000  0.000  0.000  0.000  0.000  0.000  0.000   0.00   0.00   0.00      0      0      0.0   0.00   0.00   0.08    0.00    0.00    0.00    0.00    0.00    0.00      0      0      0       0       0 20.67
 2013 143    18     2    0.0      0   0.00      0      0      0      0      0      0      0    0.0  0.000      0      0  0.000  0.000  0.000  0.000  0.000  0.000  0.000   0.00   0.00   0.00      0      0      0.0   0.00   0.00   0.11    0.00    0.00    0.00    0.00    0.00    0.00      0      0      0       0       0 20.17
 2013 144    19     3    0.0      0   0.00      0      0      0      0      0      0      0    0.0  0.000      0      0  0.000  0.000  0.000  0.000  0.000  0.000  0.000   0.00   0.00   0.00      0      0      0.0   0.00   0.00   0.14    0.00    0.00    0.00    0.00    0.00    0.00      0      0      0       0       0 20.61
 2013 145    20     4    0.0      0   0.00      0      0      0      0      0      0      0    0.0  0.000      0      0  0.000  0.000  0.000  0.000  0.000  0.000  0.000   0.00   0.00   0.00      0      0      0.0   0.00   0.00   0.17    0.00    0.00    0.00    0.00    0.00    0.00      0      0      0       0       0 20.34
 2013 146    21     5    2.0      1   0.00     12     12      0     12     25     25      0    0.0  0.000      0      0  0.000  0.000  0.012  0.000  0.000  0.000  0.000   4.40   0.00   0.00      0      0     38.7   0.00   0.00   0.19    0.25    0.12    0.02    0.00    0.00    0.00      0      0      0       0       0 21.30
 2013 147    22     6    2.0      1   0.01     12     12      0     13     25     25      0    0.0  0.000      0      0  0.000  0.000  0.008  0.000  0.000  0.000  0.000   4.40   0.00   0.00      0      0     77.3   0.01   0.00   0.21    0.25    0.13    0.03    0.00    0.00    0.00      0      0      0       0       0 20.21
 2013 148    23     7    3.0      1   0.01     12     12      0     14     25     25      0    0.0  0.000      0      0  0.000  0.000  0.000  0.000  0.000  0.000  0.000   4.40   0.00   0.00      0      0    120.7   0.01   0.00   0.23    0.26    0.14    0.03    0.00    0.00    0.00      0      0      0       0       0 19.88
 2013 149    24     8    4.0      1   0.03     12     12      0     15     25     25      0    0.0  0.000      0      0  0.000  0.000  0.000  0.000  0.000  0.000  0.000   4.40   0.00   0.00      0      0    271.4   0.02   0.00   0.25    0.27    0.14    0.04    0.00    0.00    0.00      0      0      0       0       0 20.14
 2013 150    25     9    4.0      1   0.06     18     12      0     17     30     30      0    0.0  0.000      0      0  0.000  0.000  0.000  0.000  0.000  0.000  0.000   3.60   0.00   0.00      0      0    318.9   0.03   0.00   0.27    0.29    0.16    0.05    0.00    0.00    0.00      0      0      0       0       0 20.77
 2013 151    26    10    5.0      1   0.08     29     12      0     18     42     42      0    0.0  0.000      0      0  0.000  0.000  0.000  0.000  0.000  0.000  0.000   3.02   0.00   0.00      0      0    288.6   0.05   0.00   0.29    0.29    0.16    0.05    0.00    0.00    0.00      0      0      0       0       0 20.26
 2013 152    27    11    5.0      1   0.12     44     12      0     22     57     57      0    0.0  0.000      0      0  0.000  0.000  0.000  0.000  0.000  0.000  0.000   3.00   0.00   0.00      0      0    265.4   0.06   0.00   0.30    0.32    0.19    0.08    0.00    0.00    0.00      0      0      0       0       0 20.81
 2013 153    28    12    6.0      1   0.15     63     12      0     28     75     75      0    0.0  0.000      0      0  0.000  0.000  0.000  0.000  0.000  0.000  0.000   3.01   0.00   0.00      0      0    247.0   0.08   0.00   0.31    0.38    0.24    0.12    0.00    0.00    0.00      0      0      0       0       0 20.96
 2013 154    29    13    6.0      1   0.20     84     12      0     39     96     96      0    0.0  0.000      0      0  0.000  0.000  0.000  0.000  0.000  0.000  0.000   3.05   0.00   0.00      0      0    232.5   0.11   0.00   0.32    0.47    0.32    0.18    0.01    0.00    0.00      0      0      0       0       0 19.97
 2013 155    30    14    7.0      2   0.24     98     12      0     53    110    110      0    0.0  0.000      0      0  0.000  0.000  0.000  0.260  0.000  0.000  0.000   3.37   0.00   0.00      0      0    240.5   0.13   0.00   0.34    0.57    0.43    0.28    0.02    0.00    0.00      0      0      0       0       1 19.94
 2013 156    31    15    7.0      2   0.29    129     12      0     67    141    141      0    0.0  0.000      0      0  0.000  0.000  0.005  0.132  0.000  0.000  0.000   3.04   0.00   0.00      0      0    227.3   0.16   0.00   0.36    0.66    0.52    0.36    0.03    0.00    0.00      0      0      0       0       1 21.19
 2013 157    32    16    8.0      2   0.33    151     12      0     87    163    163      0    0.0  0.000      0      0  0.000  0.000  0.000  0.453  0.000  0.000  0.000   3.33   0.00   0.00      0      0    219.9   0.18   0.00   0.39    0.81    0.65    0.49    0.05    0.00    0.00      0      0      0       0       1 20.12
 2013 158    33    17    8.0      2   0.40    190     12      0    101    202    202      0    0.0  0.000      0      0  0.000  0.000  0.000  0.184  0.000  0.000  0.000   3.06   0.00   0.00      0      0    209.5   0.21   0.00   0.41    0.89    0.74    0.57    0.06    0.00    0.00      0      0      0       0       2 20.80
 2013 159    34    18    9.0      2   0.45    221     12      0    106    233    233      0    0.0  0.000      0      0  0.000  0.000  0.000  0.327  0.000  0.000  0.000   3.78   0.00   0.00      0      0    203.0   0.24   0.00   0.44    0.93    0.77    0.60    0.07    0.00    0.00      0      0      0       0       2 20.61
 2013 160    35    19    9.0      2   0.53    273     12      0    118    285    285      0    0.0  0.000      0      0  0.000  0.000  0.000  0.237  0.000  0.000  0.000   3.74   0.00   0.00      0      0    194.2   0.29   0.00   0.46    1.01    0.85    0.68    0.09    0.00    0.00      0      0      0       0       3 21.84
 2013 161    36    20   10.0      2   0.60    318     12      0    126    331    331      0    0.0  0.000      0      0  0.000  0.000  0.000  0.159  0.000  0.000  0.000   3.69   0.00   0.00      0      0    188.0   0.32   0.00   0.49    1.05    0.89    0.72    0.10    0.00    0.00      0      0      0       0       3 19.97
 2013 162    37    21   10.0      3   0.71    398     13      0    132    411    411      0    0.0  0.000      0      0  0.000  0.000  0.000  0.074  0.000  0.000  0.000   3.61   0.00   0.00      0      0    179.2   0.38   0.00   0.51    1.09    0.93    0.75    0.11    0.00    0.00      0      0      0       0       4 21.32
 2013 163    38    22   11.0      3   0.85    493     15      0    150    508    508      0    0.0  0.000      0      0  0.000  0.000  0.000  0.000  0.000  0.000  0.000   3.53   0.00   0.00      0      0    172.5   0.46   0.00   0.54    1.20    1.03    0.85    0.14    0.00    0.00      0      0      0       0       5 20.58
 2013 164    39    23   11.0      3   1.00    600     19      0    168    619    619      0    0.0  0.000      0      0  0.000  0.000  0.000  0.000  0.000  0.000  0.000   3.47   0.00   0.00      0      0    166.4   0.54   0.00   0.56    1.32    1.13    0.94    0.17    0.01    0.00      0      0      0       0       5 20.30
 2013 165    40    24   12.0      3   1.12    693     26      0    173    719    719      0    0.0  0.000      0      0  0.000  0.000  0.000  0.000  0.000  0.000  0.000   3.41   0.00   0.00      0      0    162.0   0.60   0.00   0.59    1.34    1.16    0.96    0.18    0.01    0.00      0      0      0       0       6 20.80
 2013 166    41    25   12.0      3   1.30    828     42      0    182    870    870      0    0.0  0.000      0      0  0.000  0.000  0.000  0.000  0.000  0.000  0.000   3.35   0.00   0.00      0      0    156.7   0.70   0.00   0.61    1.40    1.21    1.01    0.20    0.02    0.00      0      0      0       0       7 19.90
 2013 167    42    26   13.0      3   1.48    970     65      0    224   1035   1035      0    0.0  0.000      0      0  0.000  0.000  0.000  0.000  0.000  0.000  0.000   3.30   0.00   0.00      0      0    152.1   0.79   0.00   0.64    1.66    1.43    1.21    0.26    0.05    0.00      0      0      0       0       8 20.05
 2013 168    43    27   13.0      3   1.64   1107     96      0    232   1203   1203      0    0.0  0.000      0      0  0.000  0.000  0.000  0.000  0.000  0.000  0.000   3.24   0.00   0.00      0      0    148.3   0.88   0.00   0.66    1.71    1.48    1.24    0.28    0.05    0.00      0      0      0       0       9 20.95
 2013 169    44    28   14.0      3   1.76   1206    125      0    308   1331   1331      0    0.0  0.000      0      0  0.049  0.366  0.000  0.000  0.000  0.000  0.000   3.20   0.00   0.00      0      0    145.5   0.95   0.00   0.69    2.18    1.87    1.58    0.40    0.13    0.00      0      0      0       0      10 20.75
 2013 170    45    29   14.0      3   1.82   1281    152      0    364   1433   1433      0    0.0  0.000      0      0  0.207  0.472  0.000  0.000  0.000  0.000  0.000   3.19   0.00   0.00      0      0    142.4   0.98   0.00   0.71    2.53    2.15    1.83    0.48    0.19    0.00      0      0      0       0      12 18.60
 2013 171    46    30   15.0      3   1.92   1363    189      0    369   1552   1552      0    0.0  0.000      0      0  0.000  0.106  0.000  0.000  0.000  0.000  0.000   3.08   0.00   0.00      0      0    140.8   1.03   0.00   0.73    2.56    2.17    1.85    0.49    0.20    0.00      0      0      0       0      14 20.40
 2013 172    47    31   15.0      3   1.95   1425    223      0    392   1648   1648      0    0.0  0.000      0      0  0.406  0.605  0.000  0.000  0.000  0.000  0.000   3.15   0.00   0.00      0      0    136.8   1.05   0.00   0.76    2.67    2.28    1.95    0.53    0.23    0.00      0      0      0       0      15 20.10
 2013 173    48    32   16.0      3   1.94   1467    250      0    415   1717   1717      0    0.0  0.000      0      0  0.614  0.743  0.000  0.000  0.000  0.000  0.000   3.16   0.00   0.00      0      0    132.0   1.05   0.00   0.78    2.65    2.41    2.06    0.57    0.27    0.00      0      0      0       0      17 20.90
 2013 174    49    33   16.0      3   1.95   1520    291      0    418   1812   1812      0    0.0  0.000      0      0  0.439  0.626  0.000  0.000  0.000  0.000  0.000   3.00   0.00   0.00      0      0    128.4   1.05   0.00   0.81    2.67    2.42    2.07    0.57    0.28    0.00      0      0      0       0      17 21.10
 2013 175    50    34   17.0      3   2.04   1603    364      0    425   1967   1967      0    0.0  0.000      0      0  0.000  0.000  0.000  0.000  0.000  0.000  0.000   2.87   0.00   0.00      0      0    127.6   1.10   0.00   0.83    2.71    2.46    2.09    0.58    0.28    0.01      0      0      0       0      19 19.10
 2013 176    51    35   17.0      3   2.12   1670    432      0    430   2102   2102      0    0.0  0.000      0      0  0.000  0.000  0.000  0.000  0.000  0.000  0.000   2.82   0.00   0.00      0      0    126.9   1.14   0.00   0.85    2.73    2.48    2.11    0.59    0.29    0.01      0      0      0       0      22 19.00
 2013 177    52    36   18.0      3   2.28   1818    600      0    446   2418   2418      0    0.0  0.000      0      0  0.000  0.000  0.000  0.000  0.000  0.000  0.000   2.78   0.00   0.00      0      0    125.5   1.23   0.00   0.88    2.82    2.56    2.16    0.61    0.31    0.02      0      0      0       0      24 20.25
 2013 178    53    37   18.0      3   2.35   1904    685      0    453   2590   2591      0    0.0  0.000      2      0  0.220  0.481  0.000  0.000  0.000  0.000  0.000   2.78   0.00   0.00      0      2    123.4   1.27   0.00   0.90    2.85    2.59    2.19    0.62    0.32    0.03      0      0      0       0      26 21.63
 2013 179    54    38   19.0      3   2.43   1979    796      0    461   2775   2778      0    0.0  0.000      4      0  0.000  0.000  0.000  0.000  0.000  0.000  0.000   2.68   0.00   0.00      0      4    122.8   1.31   0.00   0.93    2.88    2.63    2.22    0.63    0.33    0.03      0      0      0       0      28 18.55
 2013 180    55    39   19.0      3   2.53   2074    966      0    474   3040   3052      0    0.0  0.000     11      0  0.000  0.000  0.000  0.154  0.000  0.000  0.000   2.65   0.00   0.00      0     11    122.0   1.36   0.00   0.95    2.94    2.69    2.28    0.64    0.34    0.05      0      0      0       0      31 18.60
 2013 181    56    40   20.0      3   2.62   2162   1148      0    487   3310   3332      0    0.0  0.000     22      0  0.000  0.000  0.000  0.026  0.000  0.000  0.000   2.60   0.00   0.01      0     22    121.3   1.41   0.00   0.97    3.00    2.74    2.34    0.66    0.35    0.06      0      0      0       0      33 19.60
 2013 182    57    41   20.0      3   2.69   2227   1297      0    497   3524   3557      0    0.0  0.000     33      0  0.000  0.000  0.000  0.190  0.000  0.000  0.000   2.56   0.00   0.01      0     33    120.8   1.45   0.00   1.00    3.03    2.78    2.38    0.67    0.37    0.07      0      0      0       0      35 21.25
 2013 183    58    42   21.0      3   2.78   2310   1492      0    512   3803   3867      0    0.0  0.000     64      0  0.000  0.000  0.000  0.139  0.000  0.000  0.000   2.53   0.00   0.02      0     64    120.2   1.50   0.00   1.00    3.07    2.85    2.44    0.69    0.38    0.09      0      0      0       0      38 20.20
 2013 184    59    43   21.0      3   2.87   2402   1704      0    537   4106   4228      0    0.0  0.000    122      0  0.000  0.000  0.000  0.068  0.000  0.000  0.000   2.50   0.00   0.03      0    122    119.6   1.55   0.00   1.00    3.15    2.95    2.55    0.73    0.41    0.12      0      0      0       0      40 20.55
 2013 185    60    44   22.0      3   2.95   2473   1876      0    550   4350   4520      0    0.0  0.000    171      0  0.000  0.000  0.000  0.009  0.000  0.000  0.000   2.45   0.00   0.04      0    171    119.1   1.59   0.00   1.00    3.18    3.00    2.61    0.74    0.42    0.14      0      0      0       0      43 20.55
 2013 186    61    45   22.0      3   3.03   2555   2041      0    566   4596   4857      0    0.0  0.000    261      0  0.000  0.000  0.000  0.000  0.000  0.000  0.000   2.43   0.00   0.05      0    261    118.5   1.60   0.00   1.00    3.23    3.07    2.67    0.76    0.44    0.16      0      0      0       0      46 19.25
 2013 187    62    46   22.0      3   3.12   2647   2184      0    589   4831   5234      0    0.0  0.000    402      0  0.000  0.000  0.000  0.000  0.000  0.000  0.000   2.41   0.00   0.08      0    402    117.9   1.60   0.00   1.00    3.30    3.16    2.77    0.80    0.46    0.19      0      0      0       0      49 20.20
 2013 188    63    47   22.0      3   3.18   2703   2294      0    599   4997   5460      0    0.0  0.000    464      0  0.000  0.000  0.000  0.000  0.000  0.000  0.000   2.33   0.00   0.08      0    464    117.6   1.60   0.00   1.00    3.32    3.19    2.80    0.81    0.47    0.20      0      0      0       0      49 20.75
 2013 189    64    48   22.0      3   3.25   2776   2391      0    612   5167   5756      0    0.0  0.000    589      0  0.000  0.000  0.000  0.000  0.000  0.000  0.000   2.31   0.00   0.10      0    589    117.1   1.60   0.00   1.00    3.36    3.25    2.86    0.83    0.49    0.22      0      0      0       0      52 20.70
 2013 190    65    49   22.0      4   3.25   2747   2536      0    626   5282   6107      0    0.0  0.000    825      0  0.000  0.000  0.000  0.000  0.000  0.000  0.000   2.33   0.00   0.14      0    825    118.4   1.60   0.00   1.00    3.38    3.30    2.91    0.85    0.51    0.24      0      0      0       0      55 20.65
 2013 191    66    50   22.0      4   3.25   2714   2647      0    638   5362   6429      0    0.0  0.000   1068      0  0.000  0.000  0.000  0.000  0.000  0.000  0.000   2.30   0.00   0.17      0   1068    119.8   1.60   0.00   1.00    3.39    3.35    2.96    0.87    0.52    0.26      0      0      0       0      55 19.20
 2013 192    67    51   22.0      4   3.25   2680   2710      0    645   5390   6635      0    0.0  0.000   1245      0  0.000  0.000  0.000  0.000  0.000  0.000  0.000   2.28   0.00   0.19      0   1245    121.3   1.60   0.00   1.00    3.40    3.38    2.99    0.88    0.53    0.27      0      0      0       0      55 19.30
 2013 193    68    52   22.0      4   3.24   2642   2799      0    659   5441   6996      0    0.0  0.000   1555      0  0.000  0.000  0.000  0.000  0.000  0.000  0.000   2.26   0.00   0.22      0   1555    122.6   1.60   0.00   1.00    3.42    3.44    3.05    0.89    0.55    0.29      0      0      0       0      55 19.15
 2013 194    69    53   22.0      4   3.22   2601   2867      0    671   5468   7312      0    0.0  0.000   1843      0  0.000  0.000  0.000  0.000  0.000  0.000  0.000   2.25   0.00   0.25      0   1843    123.9   1.60   0.00   1.00    3.44    3.48    3.10    0.91    0.56    0.31      0      0      0       0      55 20.10
 2013 195    70    54   22.0      4   3.20   2558   2932      0    685   5490   7652      0    0.0  0.000   2163      0  0.000  0.000  0.000  0.000  0.000  0.000  0.000   2.24   0.00   0.28      0   2163    125.3   1.60   0.00   1.00    3.47    3.54    3.16    0.93    0.57    0.32      0      0      0       0      55 19.75
 2013 196    71    55   22.0      4   3.19   2511   2989      0    692   5500   7857      0    0.0  0.000   2357      0  0.000  0.087  0.000  0.000  0.000  0.000  0.000   2.24   0.00   0.30      0   2357    126.9   1.60   0.00   1.00    3.48    3.57    3.19    0.94    0.58    0.34      0      0      0       0      55 20.50
 2013 197    72    56   22.0      4   3.15   2462   3129      0    700   5591   8061      0    0.0  0.000   2470      0  0.219  0.480  0.000  0.000  0.000  0.000  0.000   2.20   0.00   0.31      0   2470    128.0   1.60   0.00   1.00    3.53    3.59    3.21    0.95    0.59    0.35      0      0      0       0      55 20.75
 2013 198    73    57   22.0      4   3.15   2410   3165      0    708   5574   8273      0    0.0  0.000   2699      0  0.000  0.000  0.000  0.000  0.000  0.000  0.000   2.21   0.00   0.33      0   2699    130.8   1.60   0.00   1.00    3.58    3.62    3.24    0.96    0.60    0.36      0      0      0       0      55 19.40
 2013 199    74    58   22.0      5   3.10   2410   3165    160    731   5574   8433   2941    5.4  0.019   2859      6  0.000  0.000  0.000  0.000  0.000  0.000  0.000   2.16   5.59   0.34      0   2859    128.6   1.60   0.00   1.00    3.71    3.71    3.33    0.99    0.62    0.38      0      0      0       0      55 19.75
 2013 200    75    59   22.0      5   3.09   2410   3165    336    780   5574   8610   2941   11.4  0.039   3035      6  0.000  0.000  0.000  0.000  0.000  0.000  0.000   2.10  11.08   0.35      0   3035    128.3   1.60   0.00   1.00    3.98    3.92    3.51    1.05    0.67    0.44      0      0      0       0      55 18.90
 2013 201    76    60   22.0      5   3.08   2410   3165    478    827   5574   8751   2941   16.2  0.055   3177      6  0.000  0.000  0.000  0.000  0.000  0.000  0.000   2.06  15.04   0.36      0   3177    127.9   1.60   0.00   1.00    4.00    4.00    3.69    1.11    0.72    0.49      0      0      0       0      55 20.60
 2013 202    77    61   22.0      5   3.07   2410   3165    636    882   5574   8910   2941   21.6  0.071   3335      6  0.000  0.000  0.000  0.000  0.000  0.000  0.000   2.01  19.08   0.37      0   3335    127.5   1.60   0.00   1.00    4.00    4.00    3.90    1.17    0.77    0.55      0      0      0       0      55 19.80
 2013 203    78    62   22.0      5   3.06   2410   3165    793    911   5574   9067   2941   27.0  0.087   3492      6  0.000  0.000  0.000  0.000  0.000  0.000  0.000   1.96  22.71   0.39      0   3492    127.0   1.60   0.00   1.00    4.00    4.00    4.00    1.21    0.80    0.59      0      0      0       0      55 19.90
 2013 204    79    63   22.0      5   3.04   2410   3165    923    966   5574   9197   2941   31.4  0.100   3622      6  0.000  0.117  0.000  0.000  0.000  0.000  0.000   1.91  25.49   0.39      0   3622    126.3   1.60   0.00   1.00    4.00    4.00    4.00    1.28    0.86    0.65      0      0      0       0      55 21.10
 2013 205    80    64   22.0      5   2.97   2410   3165   1017    989   5574   9290   2941   34.6  0.109   3716      6  0.480  0.654  0.000  0.000  0.000  0.000  0.000   1.88  27.36   0.40      0   3716    123.3   1.60   0.00   1.00    4.00    4.00    4.00    1.31    0.88    0.68      0      0      0       0      55 21.25
 2013 206    81    65   22.0      5   2.90   2410   3165   1111   1002   5574   9385   2941   37.8  0.118   3810      6  0.507  0.672  0.000  0.000  0.000  0.000  0.000   1.85  29.16   0.41      0   3810    120.1   1.60   0.00   1.00    4.00    4.00    4.00    1.32    0.89    0.69      0      0      0       0      55 21.05
 2013 207    82    66   22.0      5   2.90   2410   3165   1260   1033   5574   9534   2941   42.8  0.132   3959      6  0.000  0.000  0.000  0.000  0.000  0.000  0.000   1.81  31.83   0.42      0   3959    120.1   1.60   0.00   1.00    4.00    4.00    4.00    1.35    0.92    0.72      0      0      0       0      55 20.25
 2013 208    83    67   22.0      5   2.90   2410   3165   1437   1039   5574   9710   2941   48.8  0.148   4136      6  0.000  0.000  0.000  0.090  0.000  0.000  0.000   1.75  34.74   0.43      0   4136    120.1   1.60   0.00   1.00    4.00    4.00    4.00    1.36    0.93    0.73      0      0      0       0      55 18.65
 2013 209    84    68   22.0      5   2.90   2410   3165   1563   1096   5574   9837   2941   53.2  0.159   4263      6  0.000  0.000  0.000  0.148  0.000  0.000  0.000   1.71  36.68   0.43      0   4263    120.1   1.60   0.00   1.00    4.00    4.00    4.00    1.42    0.98    0.79      0      0      0       0      55 21.25
 2013 210    85    69   22.0      5   2.90   2410   3165   1728   1131   5574  10001   2941   58.7  0.173   4427      6  0.000  0.000  0.000  0.188  0.000  0.000  0.000   1.66  39.03   0.44      0   4427    120.1   1.60   0.00   1.00    4.00    4.00    4.00    1.46    1.01    0.82      0      0      0       0      55 19.55
 2013 211    86    70   22.0      5   2.86   2410   3165   1903   1153   5574  10177   2941   64.7  0.187   4602      6  0.000  0.000  0.000  0.139  0.000  0.000  0.000   1.60  41.35   0.45      0   4602    118.8   1.60   0.00   1.00    4.00    4.00    4.00    1.49    1.03    0.85      0      0      0       0      55 19.05
 2013 212    87    71   22.0      5   2.82   2410   3165   2054   1183   5574  10328   2941   69.8  0.199   4753      6  0.000  0.000  0.000  0.075  0.000  0.000  0.000   1.46  43.22   0.46      0   4753    117.2   1.60   0.00   1.00    4.00    4.00    4.00    1.52    1.06    0.88      0      0      0       0      60 20.15
 2013 213    88    72   22.0      5   2.78   2410   3165   2186   1201   5574  10459   2941   74.3  0.209   4885      6  0.000  0.000  0.000  0.111  0.000  0.000  0.000   1.42  44.74   0.47      0   4885    115.4   1.60   0.00   1.00    4.00    4.00    4.00    1.54    1.07    0.90      0      0      0       0      66 21.05
 2013 214    89    73   22.0      5   2.74   2410   3165   2344   1230   5574  10618   2941   79.7  0.221   5043      6  0.000  0.000  0.000  0.046  0.000  0.000  0.000   1.40  46.48   0.47      0   5043    113.5   1.60   0.00   1.00    4.00    4.00    4.00    1.57    1.10    0.93      0      0      0       0      72 19.80
 2013 215    90    74   22.0      5   2.68   2410   3165   2479   1292   5574  10752   2941   84.3  0.231   5178      6  0.000  0.000  0.000  0.047  0.000  0.000  0.000   1.38  47.88   0.48      0   5178    111.4   1.60   0.00   1.00    4.00    4.00    4.00    1.65    1.16    0.99      0      0      0       0      79 20.90
 2013 216    91    75   22.0      5   2.63   2410   3165   2646   1317   5574  10919   2941   89.9  0.242   5345      6  0.000  0.000  0.000  0.001  0.000  0.000  0.000   1.35  49.50   0.49      0   5345    109.2   1.60   0.00   1.00    4.00    4.00    4.00    1.67    1.18    1.01      0      0      0       0      85 19.45
 2013 217    92    76   22.0      5   2.58   2410   3165   2821   1325   5574  11094   2941   95.9  0.254   5520      6  0.000  0.000  0.000  0.000  0.000  0.000  0.000   1.31  51.10   0.50      0   5520    106.9   1.60   0.00   1.00    4.00    4.00    4.00    1.68    1.19    1.02      0      0      0       0      92 19.05
 2013 218    93    77   22.0      5   2.51   2410   3165   2962   1350   5574  11236   2941  100.7  0.264   5661      6  0.000  0.000  0.000  0.000  0.000  0.000  0.000   1.29  52.32   0.50      0   5661    104.3   1.60   0.00   1.00    4.00    4.00    4.00    1.71    1.21    1.05      0      0      0       0      98 20.60
 2013 219    94    78   22.0      5   2.44   2410   3165   3082   1388   5574  11356   2941  104.8  0.271   5781      6  0.000  0.124  0.000  0.000  0.000  0.000  0.000   1.26  53.32   0.51      0   5781    101.3   1.60   0.00   1.00    4.00    4.00    4.00    1.76    1.25    1.09      0      0      0       0     105 21.55
 2013 220    95    79   22.0      5   2.37   2410   3165   3237   1399   5574  11510   2941  110.0  0.281   5936      6  0.000  0.000  0.000  0.000  0.000  0.000  0.000   1.23  54.53   0.52      0   5936     98.3   1.60   0.00   1.00    4.00    4.00    4.00    1.77    1.26    1.10      0      0      0       0     112 20.00
 2013 221    96    80   22.0      5   2.29   2410   3165   3361   1426   5574  11635   2941  114.3  0.289   6060      6  0.000  0.000  0.000  0.015  0.000  0.000  0.000   1.20  55.47   0.52      0   6060     94.9   1.60   0.00   1.00    4.00    4.00    4.00    1.80    1.28    1.13      0      0      0       0     119 21.18
 2013 222    97    81   22.0      5   2.20   2410   3165   3518   1438   5574  11792   2941  119.6  0.298   6217      6  0.000  0.000  0.000  0.144  0.000  0.000  0.000   1.18  56.59   0.53      0   6217     91.5   1.60   0.00   1.00    4.00    4.00    4.00    1.82    1.29    1.15      0      0      0       0     126 19.90
 2013 223    98    82   22.0      5   2.12   2410   3165   3685   1435   5574  11958   2941  125.3  0.308   6384      6  0.000  0.000  0.000  0.109  0.000  0.000  0.000   1.15  57.72   0.53      0   6384     88.0   1.60   0.00   1.00    3.99    3.99    4.00    1.82    1.29    1.14      0      0      0       0     133 19.45
 2013 224    99    83   22.0      5   2.03   2410   3165   3848   1443   5574  12121   2941  130.8  0.317   6547      6  0.000  0.000  0.000  0.064  0.000  0.000  0.000   1.13  58.77   0.54      0   6547     84.2   1.60   0.00   1.00    4.00    4.00    4.00    1.83    1.30    1.15      0      0      0       0     140 19.60
 2013 225   100    84   22.0      5   1.93   2410   3165   3999   1460   5574  12272   2941  136.0  0.326   6698      6  0.000  0.000  0.000  0.010  0.000  0.000  0.000   1.11  59.70   0.55      0   6698     80.1   1.60   0.00   1.00    4.00    4.00    4.00    1.85    1.32    1.17      0      0      0       0     148 20.15
 2013 226   101    85   22.0      5   1.82   2410   3165   4138   1495   5574  12411   2941  140.7  0.333   6837      6  0.000  0.000  0.000  0.000  0.000  0.000  0.000   1.09  60.52   0.55      0   6837     75.6   1.60   0.00   1.00    4.00    4.00    4.00    1.90    1.35    1.21      0      0      0       0     155 20.70
 2013 227   102    86   22.0      5   1.71   2410   3165   4280   1522   5574  12554   2941  145.5  0.341   6979      6  0.000  0.000  0.000  0.000  0.000  0.000  0.000   1.06  61.33   0.56      0   6979     70.9   1.60   0.00   1.00    4.00    4.00    4.00    1.94    1.38    1.24      0      0      0       0     162 20.55
 2013 228   103    87   22.0      5   1.59   2410   3142   4442   1515   5552  12693   2941  151.0  0.350   7141      6  0.000  0.000  0.000  0.000  0.000  0.000  0.000   1.03  62.21   0.56      0   7141     66.2   1.60   0.00   1.00    4.00    4.00    4.00    1.94    1.38    1.24      0      0      0       0     170 19.65
 2013 229   104    88   22.0      5   1.47   2410   3165   4596   1529   5574  12869   2941  156.2  0.357   7295      6  0.000  0.000  0.000  0.000  0.000  0.000  0.000   1.02  63.00   0.57      0   7295     61.1   1.60   0.00   1.00    4.00    4.00    4.00    1.96    1.39    1.25      0      0      0       0     178 20.05
 2013 230   105    89   22.0      5   1.34   2410   3165   4745   1541   5574  13018   2941  161.3  0.364   7444      6  0.000  0.000  0.000  0.000  0.000  0.000  0.000   1.00  63.74   0.57      0   7444     55.6   1.60   0.00   1.00    4.00    4.00    4.00    1.98    1.40    1.26      0      0      0       0     185 20.25
 2013 231   106    90   22.0      5   1.34   2410   3165   4745   1541   5574  13018   2941  161.3  0.364   7444      6  0.000  0.000  0.000  0.000  0.000  0.000  0.000   1.00  63.74   0.57      0   7444     55.6   1.60   0.00   1.00    4.00    4.00    4.00    2.00    1.41    1.27      0      0      0       0     185 18.75
 2013 232   107    91   22.0      5   1.34   2410   3165   4745   1541   5574  13018   2941  161.3  0.364   7444      6  0.000  0.000  0.000  0.016  0.000  0.000  0.000   1.00  63.74   0.57      0   7444     55.6   1.60   0.00   1.00    4.00    4.00    4.00    2.02    1.42    1.28      0      0      0       0     185 19.10
 2013 233   108    92   22.0      5   1.34   2410   3165   4745   1541   5574  13018   2941  161.3  0.364   7444      6  0.000  0.000  0.000  0.016  0.000  0.000  0.000   1.00  63.74   0.57      0   7444     55.6   1.60   0.00   1.00    4.00    4.00    4.00    2.04    1.44    1.29      0      0      0       0     185  0.00

*DSSAT Cropping System Model Ver. 4.6.1.000 -release      MAY 05, 2017; 11:09:11
                                                                                
*RUN   3        : P3                        MZCER046 1\000001    3              
 MODEL          : MZCER046 - Maize                                              
 EXPERIMENT     : 1\000001 BN Calibracion Cerete 2013                           
 DATA PATH      : C:\L\0\00000                                                  
 TREATMENT  3   : P3                        MZCER046                            
  
!                                                                                                                                                                                                                                      Root Dens. (cm/cm3) by soil depth (cm):
!                                                                                                                                                                                                                                      0-5    5-15   15-26   26-51   51-75  75-100
@YEAR DOY   DAS   DAP   L#SD   GSTD   LAID   LWAD   SWAD   GWAD   RWAD   VWAD   CWAD   G#AD   GWGD   HIAD   PWAD   P#AD   WSPD   WSGD   NSTD   EWSD  PST1A  PST2A   KSTD   LN%D   SH%D   HIPD   PWDD   PWTD     SLAD   CHTD   CWID   RDPD    RL1D    RL2D    RL3D    RL4D    RL5D    RL6D   CDAD   LDAD   SDAD   SNW0C   SNW1C  DTTD
 2013 157    16     0    0.0      0   0.00      0      0      0      0      0      0      0    0.0  0.000      0      0  0.000  0.000  0.000  0.000  0.000  0.000  0.000   0.00   0.00   0.00      0      0      0.0   0.00   0.00   0.05    0.00    0.00    0.00    0.00    0.00    0.00      0      0      0       0       0 20.12
 2013 158    17     1    0.0      0   0.00      0      0      0      0      0      0      0    0.0  0.000      0      0  0.000  0.000  0.000  0.000  0.000  0.000  0.000   0.00   0.00   0.00      0      0      0.0   0.00   0.00   0.08    0.00    0.00    0.00    0.00    0.00    0.00      0      0      0       0       0 20.80
 2013 159    18     2    0.0      0   0.00      0      0      0      0      0      0      0    0.0  0.000      0      0  0.000  0.000  0.000  0.000  0.000  0.000  0.000   0.00   0.00   0.00      0      0      0.0   0.00   0.00   0.11    0.00    0.00    0.00    0.00    0.00    0.00      0      0      0       0       0 20.61
 2013 160    19     3    0.0      0   0.00      0      0      0      0      0      0      0    0.0  0.000      0      0  0.000  0.000  0.000  0.000  0.000  0.000  0.000   0.00   0.00   0.00      0      0      0.0   0.00   0.00   0.14    0.00    0.00    0.00    0.00    0.00    0.00      0      0      0       0       0 21.84
 2013 161    20     4    0.0      0   0.00      0      0      0      0      0      0      0    0.0  0.000      0      0  0.000  0.000  0.000  0.000  0.000  0.000  0.000   0.00   0.00   0.00      0      0      0.0   0.00   0.00   0.17    0.00    0.00    0.00    0.00    0.00    0.00      0      0      0       0       0 19.97
 2013 162    21     5    2.0      1   0.00     12     12      0     12     25     25      0    0.0  0.000      0      0  0.000  0.000  0.012  0.000  0.000  0.000  0.000   4.40   0.00   0.00      0      0     38.8   0.00   0.00   0.20    0.25    0.12    0.03    0.00    0.00    0.00      0      0      0       0       0 21.32
 2013 163    22     6    2.0      1   0.01     12     12      0     13     25     25      0    0.0  0.000      0      0  0.000  0.000  0.007  0.000  0.000  0.000  0.000   4.40   0.00   0.00      0      0     78.2   0.01   0.00   0.22    0.25    0.13    0.03    0.00    0.00    0.00      0      0      0       0       0 20.58
 2013 164    23     7    3.0      1   0.02     12     12      0     14     25     25      0    0.0  0.000      0      0  0.000  0.000  0.000  0.000  0.000  0.000  0.000   4.40   0.00   0.00      0      0    124.0   0.01   0.00   0.24    0.26    0.13    0.03    0.00    0.00    0.00      0      0      0       0       0 20.78
 2013 165    24     8    4.0      1   0.04     12     12      0     15     25     25      0    0.0  0.000      0      0  0.000  0.000  0.000  0.000  0.000  0.000  0.000   4.40   0.00   0.00      0      0    285.7   0.02   0.00   0.26    0.27    0.14    0.04    0.00    0.00    0.00      0      0      0       0       0 21.02
 2013 166    25     9    4.0      1   0.06     19     12      0     16     31     31      0    0.0  0.000      0      0  0.000  0.000  0.000  0.000  0.000  0.000  0.000   3.52   0.00   0.00      0      0    316.5   0.03   0.00   0.28    0.28    0.15    0.05    0.00    0.00    0.00      0      0      0       0       0 20.40
 2013 167    26    10    5.0      1   0.09     30     12      0     18     43     43      0    0.0  0.000      0      0  0.000  0.000  0.000  0.000  0.000  0.000  0.000   2.99   0.00   0.00      0      0    286.1   0.05   0.00   0.29    0.29    0.16    0.06    0.00    0.00    0.00      0      0      0       0       0 20.70
 2013 168    27    11    5.0      1   0.12     46     12      0     20     59     59      0    0.0  0.000      0      0  0.000  0.000  0.000  0.000  0.000  0.000  0.000   2.97   0.00   0.00      0      0    262.9   0.07   0.00   0.30    0.31    0.18    0.07    0.00    0.00    0.00      0      0      0       0       0 21.28
 2013 169    28    12    6.0      1   0.15     60     12      0     29     72     72      0    0.0  0.000      0      0  0.000  0.275  0.000  0.000  0.000  0.000  0.000   3.22   0.00   0.00      0      0    249.0   0.08   0.00   0.32    0.39    0.24    0.13    0.00    0.00    0.00      0      0      0       0       0 21.35
 2013 170    29    13    6.0      1   0.18     78     12      0     38     91     91      0    0.0  0.000      0      0  0.000  0.125  0.000  0.000  0.000  0.000  0.000   3.13   0.00   0.00      0      0    235.8   0.10   0.00   0.33    0.47    0.31    0.18    0.01    0.00    0.00      0      0      0       0       0 19.24
 2013 171    30    14    7.0      2   0.23     93     12      0     41    106    106      0    0.0  0.000      0      0  0.000  0.000  0.000  0.000  0.000  0.000  0.000   3.29   0.00   0.00      0      0    242.8   0.12   0.00   0.34    0.49    0.32    0.19    0.01    0.00    0.00      0      0      0       0       1 20.61
 2013 172    31    15    7.0      2   0.26    112     12      0     49    124    124      0    0.0  0.000      0      0  0.183  0.456  0.007  0.000  0.000  0.000  0.000   3.31   0.00   0.00      0      0    232.7   0.14   0.00   0.37    0.56    0.38    0.25    0.02    0.00    0.00      0      0      0       0       1 20.52
 2013 173    32    16    8.0      2   0.28    128     12      0     59    140    140      0    0.0  0.000      0      0  0.442  0.628  0.000  0.000  0.000  0.000  0.000   3.41   0.00   0.00      0      0    222.3   0.15   0.00   0.39    0.56    0.46    0.32    0.03    0.00    0.00      0      0      0       0       1 21.60
 2013 174    33    17    8.0      2   0.33    156     12      0     64    168    168      0    0.0  0.000      0      0  0.085  0.391  0.000  0.000  0.000  0.000  0.000   3.16   0.00   0.00      0      0    214.2   0.18   0.00   0.42    0.60    0.49    0.34    0.04    0.00    0.00      0      0      0       0       1 21.33
 2013 175    34    18    9.0      2   0.39    189     12      0     69    201    201      0    0.0  0.000      0      0  0.000  0.000  0.000  0.000  0.000  0.000  0.000   3.78   0.00   0.00      0      0    207.6   0.21   0.00   0.44    0.64    0.53    0.37    0.04    0.00    0.00      0      0      0       0       2 19.46
 2013 176    35    19    9.0      2   0.45    220     12      0     75    233    233      0    0.0  0.000      0      0  0.000  0.000  0.000  0.035  0.000  0.000  0.000   3.74   0.00   0.00      0      0    202.2   0.24   0.00   0.47    0.68    0.56    0.40    0.05    0.00    0.00      0      0      0       0       2 19.24
 2013 177    36    20   10.0      2   0.56    290     12      0     96    303    303      0    0.0  0.000      0      0  0.000  0.042  0.000  0.000  0.000  0.000  0.000   3.69   0.00   0.00      0      0    191.4   0.30   0.00   0.49    0.83    0.70    0.50    0.08    0.00    0.00      0      0      0       0       2 20.97
 2013 178    37    21   10.0      3   0.67    368     13      0    104    381    381      0    0.0  0.000      0      0  0.000  0.131  0.000  0.000  0.000  0.000  0.000   3.61   0.00   0.00      0      0    182.1   0.36   0.00   0.52    0.88    0.75    0.54    0.10    0.00    0.00      0      0      0       0       3 22.19
 2013 179    38    22   11.0      3   0.79    449     14      0    108    463    463      0    0.0  0.000      0      0  0.000  0.000  0.000  0.000  0.000  0.000  0.000   3.54   0.00   0.00      0      0    175.7   0.43   0.00   0.54    0.90    0.77    0.57    0.10    0.00    0.00      0      0      0       0       3 19.00
 2013 180    39    23   11.0      3   0.90    528     17      0    142    545    545      0    0.0  0.000      0      0  0.000  0.000  0.000  0.177  0.000  0.000  0.000   3.48   0.00   0.00      0      0    170.6   0.48   0.00   0.56    1.10    0.97    0.75    0.16    0.01    0.00      0      0      0       0       4 18.60
 2013 181    40    24   12.0      3   1.06    646     25      0    162    672    672      0    0.0  0.000      0      0  0.000  0.000  0.000  0.065  0.000  0.000  0.000   3.43   0.00   0.00      0      0    164.3   0.57   0.00   0.59    1.22    1.08    0.86    0.19    0.02    0.00      0      0      0       0       5 19.60
 2013 182    41    25   12.0      3   1.21    758     38      0    174    795    795      0    0.0  0.000      0      0  0.000  0.000  0.000  0.222  0.000  0.000  0.000   3.36   0.00   0.00      0      0    159.5   0.65   0.00   0.61    1.29    1.15    0.92    0.21    0.03    0.00      0      0      0       0       5 21.25
 2013 183    42    26   13.0      3   1.36    875     56      0    217    931    931      0    0.0  0.000      0      0  0.000  0.000  0.000  0.163  0.000  0.000  0.000   3.31   0.00   0.00      0      0    155.2   0.73   0.00   0.64    1.54    1.38    1.14    0.28    0.05    0.00      0      0      0       0       6 20.20
 2013 184    43    27   13.0      3   1.52   1009     85      0    279   1095   1095      0    0.0  0.000      0      0  0.000  0.000  0.000  0.086  0.000  0.000  0.000   3.25   0.00   0.00      0      0    151.0   0.82   0.00   0.66    1.89    1.70    1.44    0.38    0.11    0.00      0      0      0       0       7 20.55
 2013 185    44    28   14.0      3   1.70   1157    127      0    302   1284   1284      0    0.0  0.000      0      0  0.000  0.000  0.000  0.026  0.000  0.000  0.000   3.19   0.00   0.00      0      0    147.2   0.92   0.00   0.69    2.02    1.83    1.55    0.41    0.13    0.00      0      0      0       0       9 20.55
 2013 186    45    29   14.0      3   1.87   1302    179      0    347   1481   1481      0    0.0  0.000      0      0  0.000  0.000  0.000  0.000  0.000  0.000  0.000   3.14   0.00   0.00      0      0    143.9   1.01   0.00   0.71    2.27    2.06    1.76    0.48    0.18    0.00      0      0      0       0      10 19.25
 2013 187    46    30   15.0      3   2.05   1458    248      0    406   1706   1706      0    0.0  0.000      0      0  0.000  0.000  0.000  0.000  0.000  0.000  0.000   3.09   0.00   0.00      0      0    140.8   1.11   0.00   0.74    2.60    2.36    2.03    0.57    0.25    0.00      0      0      0       0      12 20.20
 2013 188    47    31   15.0      3   2.19   1583    314      0    415   1897   1897      0    0.0  0.000      0      0  0.000  0.000  0.000  0.000  0.000  0.000  0.000   3.03   0.00   0.00      0      0    138.5   1.18   0.00   0.76    2.65    2.41    2.06    0.58    0.26    0.00      0      0      0       0      14 20.75
 2013 189    48    32   16.0      3   2.37   1738    414      0    427   2153   2153      0    0.0  0.000      0      0  0.000  0.000  0.000  0.000  0.000  0.000  0.000   2.98   0.00   0.00      0      0    136.1   1.27   0.00   0.79    2.71    2.46    2.11    0.60    0.28    0.00      0      0      0       0      16 20.70
 2013 190    49    33   16.0      3   2.55   1908    542      0    459   2449   2449      0    0.0  0.000      0      0  0.000  0.000  0.000  0.000  0.000  0.000  0.000   2.93   0.00   0.00      0      0    133.6   1.37   0.00   0.81    2.88    2.63    2.25    0.64    0.32    0.01      0      0      0       0      18 20.65
 2013 191    50    34   17.0      3   2.72   2068    681      0    484   2749   2749      0    0.0  0.000      0      0  0.000  0.000  0.000  0.000  0.000  0.000  0.000   2.88   0.00   0.00      0      0    131.5   1.47   0.00   0.83    3.01    2.76    2.35    0.67    0.35    0.02      0      0      0       0      21 19.20
 2013 192    51    35   17.0      3   2.84   2179    791      0    494   2969   2969      0    0.0  0.000      0      0  0.000  0.000  0.000  0.004  0.000  0.000  0.000   2.84   0.00   0.00      0      0    130.2   1.53   0.00   0.86    3.06    2.81    2.38    0.69    0.36    0.03      0      0      0       0      23 19.30
 2013 193    52    36   18.0      3   3.01   2343    974      0    524   3317   3317      0    0.0  0.000      0      0  0.000  0.000  0.000  0.000  0.000  0.000  0.000   2.79   0.00   0.00      0      0    128.4   1.60   0.00   0.88    3.22    2.96    2.50    0.73    0.40    0.05      0      0      0       0      25 19.15
 2013 194    53    37   18.0      3   3.24   2571   1084      0    540   3655   3657      0    0.0  0.000      2      0  0.000  0.000  0.000  0.000  0.000  0.000  0.000   2.74   0.00   0.00      0      2    126.1   1.60   0.00   0.90    3.30    3.04    2.55    0.75    0.42    0.06      0      0      0       0      28 20.10
 2013 195    54    38   19.0      3   3.41   2742   1283      0    558   4025   4033      0    0.0  0.000      8      0  0.000  0.000  0.000  0.000  0.000  0.000  0.000   2.70   0.00   0.00      0      8    124.5   1.60   0.00   0.93    3.40    3.12    2.62    0.77    0.44    0.08      0      0      0       0      31 19.75
 2013 196    55    39   19.0      3   3.51   2837   1434      0    569   4271   4283      0    0.0  0.000     12      0  0.000  0.000  0.000  0.000  0.000  0.000  0.000   2.65   0.00   0.00      0     12    123.7   1.60   0.00   0.95    3.45    3.17    2.65    0.78    0.45    0.09      0      0      0       0      34 20.50
 2013 197    56    40   20.0      3   3.57   2923   1590      0    596   4513   4538      0    0.0  0.000     25      0  0.130  0.421  0.000  0.000  0.000  0.000  0.000   2.63   0.00   0.01      0     25    122.1   1.60   0.00   0.98    3.59    3.30    2.73    0.82    0.48    0.12      0      0      0       0      36 20.75
 2013 198    57    41   20.0      3   3.65   3006   1763      0    608   4769   4806      0    0.0  0.000     37      0  0.000  0.000  0.000  0.000  0.000  0.000  0.000   2.57   0.00   0.01      0     37    121.5   1.60   0.00   1.00    3.64    3.36    2.76    0.83    0.49    0.14      0      0      0       0      39 19.40
 2013 199    58    42   21.0      3   3.72   3079   1926      0    619   5004   5057      0    0.0  0.000     53      0  0.000  0.000  0.000  0.000  0.000  0.000  0.000   2.53   0.00   0.01      0     53    120.9   1.60   0.00   1.00    3.68    3.41    2.79    0.84    0.51    0.16      0      0      0       0      42 19.75
 2013 200    59    43   21.0      3   3.82   3179   2142      0    637   5321   5423      0    0.0  0.000    102      0  0.000  0.000  0.000  0.000  0.000  0.000  0.000   2.50   0.00   0.02      0    102    120.2   1.60   0.00   1.00    3.76    3.50    2.84    0.87    0.53    0.18      0      0      0       0      46 18.90
 2013 201    60    44   22.0      3   3.90   3264   2334      0    652   5598   5752      0    0.0  0.000    154      0  0.000  0.000  0.000  0.000  0.000  0.000  0.000   2.46   0.00   0.03      0    154    119.6   1.60   0.00   1.00    3.81    3.57    2.87    0.88    0.55    0.21      0      0      0       0      49 20.60
 2013 202    61    45   22.0      3   3.99   3356   2517      0    674   5873   6123      0    0.0  0.000    250      0  0.000  0.000  0.000  0.000  0.000  0.000  0.000   2.43   0.00   0.04      0    250    119.0   1.60   0.00   1.00    3.90    3.68    2.92    0.91    0.57    0.24      0      0      0       0      52 19.80
[...]
 2014 190    48    32   16.0      3   1.99   1465    313      0    414   1778   1778      0    0.0  0.000      0      0  0.000  0.000  0.000  0.000  0.000  0.000  0.000   2.97   0.00   0.00      0      0    136.0   1.07   0.00   0.77    2.56    2.27    2.12    0.60    0.28    0.00      0      0      0       0      14 19.25
 2014 191    49    33   16.0      3   2.11   1570    391      0    500   1961   1961      0    0.0  0.000      0      0  0.000  0.000  0.000  0.305  0.000  0.000  0.000   2.92   0.00   0.00      0      0    134.4   1.14   0.00   0.79    2.98    2.69    2.53    0.72    0.38    0.02      0      0      0       0      16 19.10
 2014 192    50    34   17.0      3   2.19   1639    451      0    504   2090   2090      0    0.0  0.000      0      0  0.000  0.000  0.000  0.196  0.000  0.000  0.000   2.87   0.00   0.00      0      0    133.4   1.18   0.00   0.82    3.00    2.71    2.56    0.72    0.38    0.02      0      0      0       0      19 20.20
 2014 193    51    35   17.0      3   2.33   1766    577      0    516   2343   2343      0    0.0  0.000      0      0  0.000  0.000  0.000  0.025  0.000  0.000  0.000   2.82   0.00   0.00      0      0    131.8   1.25   0.00   0.84    3.05    2.76    2.61    0.74    0.40    0.03      0      0      0       0      21 20.60
 2014 194    52    36   18.0      3   2.49   1916    745      0    531   2661   2661      0    0.0  0.000      0      0  0.000  0.000  0.000  0.000  0.000  0.000  0.000   2.78   0.00   0.00      0      0    129.9   1.34   0.00   0.86    3.12    2.83    2.68    0.76    0.42    0.03      0      0      0       0      24 19.20
 2014 195    53    37   18.0      3   2.66   2072    881      0    545   2953   2955      0    0.0  0.000      3      0  0.000  0.000  0.000  0.000  0.000  0.000  0.000   2.73   0.00   0.00      0      3    128.2   1.43   0.00   0.88    3.18    2.89    2.74    0.78    0.43    0.04      0      0      0       0      27 19.20
 2014 196    54    38   19.0      3   2.78   2193   1051      0    559   3245   3252      0    0.0  0.000      7      0  0.000  0.000  0.000  0.000  0.000  0.000  0.000   2.69   0.00   0.00      0      7    126.9   1.50   0.00   0.90    3.25    2.95    2.80    0.80    0.45    0.05      0      0      0       0      29 19.25
 2014 197    55    39   19.0      3   2.91   2311   1259      0    574   3571   3587      0    0.0  0.000     16      0  0.000  0.000  0.000  0.000  0.000  0.000  0.000   2.65   0.00   0.00      0     16    125.8   1.57   0.00   0.93    3.32    3.02    2.86    0.81    0.46    0.07      0      0      0       0      32 20.80
 2014 198    56    40   20.0      3   3.01   2416   1470      0    590   3886   3916      0    0.0  0.000     30      0  0.000  0.000  0.000  0.000  0.000  0.000  0.000   2.60   0.00   0.01      0     30    124.8   1.60   0.00   0.95    3.39    3.09    2.92    0.83    0.48    0.08      0      0      0       0      35 19.80
 2014 199    57    41   20.0      3   3.06   2464   1581      0    596   4045   4080      0    0.0  0.000     35      0  0.000  0.000  0.000  0.000  0.000  0.000  0.000   2.55   0.00   0.01      0     35    124.3   1.60   0.00   0.97    3.41    3.11    2.94    0.84    0.49    0.09      0      0      0       0      38 20.30
 2014 200    58    42   20.0      3   3.08   2517   1692      0    649   4209   4274      0    0.0  0.000     65      0  0.252  0.502  0.000  0.000  0.000  0.000  0.000   2.56   0.00   0.02      0     65    122.3   1.60   0.00   0.99    3.65    3.34    3.15    0.91    0.54    0.16      0      0      0       0      41 20.20
 2014 201    59    43   21.0      3   3.04   2552   1764      0    683   4316   4411      0    0.0  0.000     95      0  0.470  0.647  0.000  0.000  0.000  0.000  0.000   2.55   0.00   0.02      0     95    119.2   1.60   0.00   1.00    3.79    3.48    3.28    0.95    0.58    0.20      0      0      0       0      44 20.40
 2014 202    60    44   21.0      3   3.13   2641   1963      0    699   4604   4774      0    0.0  0.000    170      0  0.000  0.000  0.000  0.000  0.000  0.000  0.000   2.46   0.00   0.04      0    170    118.6   1.60   0.00   1.00    3.86    3.55    3.34    0.98    0.60    0.22      0      0      0       0      48 20.35
 2014 203    61    45   21.0      3   3.21   2715   2120      0    713   4836   5075      0    0.0  0.000    240      0  0.000  0.000  0.000  0.000  0.000  0.000  0.000   2.41   0.00   0.05      0    240    118.1   1.60   0.00   1.00    3.91    3.60    3.39    0.99    0.61    0.24      0      0      0       0      51 19.90
 2014 204    62    46   21.0      3   3.15   2744   2139      0    755   4883   5194      0    0.0  0.000    310      0  0.529  0.687  0.000  0.000  0.000  0.000  0.000   2.44   0.00   0.06      0    310    114.8   1.60   0.00   1.00    4.00    3.78    3.55    1.05    0.66    0.30      0      0      0       0      55 20.25
 2014 205    63    47   21.0      3   3.07   2767   2143      0    785   4910   5287      0    0.0  0.000    377      0  0.620  0.747  0.000  0.000  0.000  0.000  0.000   2.42   0.00   0.07      0    377    111.1   1.60   0.00   1.00    4.00    3.90    3.65    1.09    0.69    0.34      0      0      0       0      55 19.90
 2014 206    64    48   21.0      3   2.99   2786   2172      0    810   4958   5364      0    0.0  0.000    406      0  0.689  0.793  0.000  0.000  0.000  0.000  0.000   2.40   0.00   0.08      0    406    107.2   1.60   0.00   1.00    4.00    4.00    3.75    1.12    0.72    0.38      0      0      0       0      55 19.85
 2014 207    65    49   21.0      4   2.89   2757   2265      0    811   5022   5444      0    0.0  0.000    422      0  0.644  0.763  0.000  0.000  0.000  0.000  0.000   2.37   0.00   0.08      0    422    104.8   1.60   0.00   1.00    3.98    4.00    3.76    1.12    0.72    0.38      0      0      0       0      55 19.95
 2014 208    66    50   21.0      4   2.80   2724   2341      0    811   5065   5503      0    0.0  0.000    438      0  0.603  0.736  0.000  0.000  0.000  0.000  0.000   2.35   0.00   0.08      0    438    102.9   1.60   0.00   1.00    3.96    4.00    3.75    1.12    0.72    0.38      0      0      0       0      55 20.40
 2014 209    67    51   21.0      4   2.69   2689   2415      0    810   5104   5551      0    0.0  0.000    447      0  0.789  0.860  0.000  0.000  0.000  0.000  0.000   2.33   0.00   0.08      0    447    100.1   1.60   0.00   1.00    3.94    3.99    3.75    1.12    0.72    0.39      0      0      0       0      55 20.35
 2014 210    68    52   21.0      4   2.62   2651   2472      0    810   5123   5588      0    0.0  0.000    465      0  0.530  0.687  0.000  0.000  0.000  0.000  0.000   2.32   0.00   0.08      0    465     98.9   1.60   0.00   1.00    3.92    3.99    3.74    1.12    0.72    0.39      0      0      0       0      55 19.85
 2014 211    69    53   21.0      4   2.51   2610   2534      0    809   5144   5616      0    0.0  0.000    472      0  0.814  0.877  0.000  0.000  0.000  0.000  0.000   2.31   0.00   0.08      0    472     96.3   1.60   0.00   1.00    3.90    3.98    3.74    1.12    0.72    0.39      0      0      0       0      55 20.00
 2014 212    70    54   21.0      4   2.44   2566   2582      0    807   5148   5635      0    0.0  0.000    486      0  0.584  0.723  0.000  0.000  0.000  0.000  0.000   2.31   0.00   0.09      0    486     95.1   1.60   0.00   1.00    3.88    3.97    3.73    1.12    0.72    0.39      0      0      0       0      55 20.20
 2014 213    71    55   21.0      4   2.34   2520   2635      0    806   5155   5647      0    0.0  0.000    492      0  0.827  0.885  0.000  0.000  0.000  0.000  0.000   2.31   0.00   0.09      0    492     92.9   1.60   0.00   1.00    3.86    3.96    3.72    1.12    0.72    0.40      0      0      0       0      55 19.90
 2014 214    72    56   21.0      4   2.26   2470   2679      0    804   5149   5652      0    0.0  0.000    503      0  0.643  0.763  0.000  0.000  0.000  0.000  0.000   2.31   0.00   0.09      0    503     91.7   1.60   0.00   1.00    3.84    3.94    3.71    1.12    0.72    0.40      0      0      0       0      55 20.40
 2014 215    73    57   21.0      4   2.18   2418   2723      0    802   5140   5651      0    0.0  0.000    510      0  0.759  0.840  0.000  0.000  0.000  0.000  0.000   2.31   0.00   0.09      0    510     90.1   1.60   0.00   1.00    3.82    3.93    3.69    1.12    0.72    0.40      0      0      0       0      55 19.95
 2014 216    74    58   21.0      5   2.08   2418   2723     25    805   5140   5676    908    2.7  0.004    535      6  0.863  0.909  0.000  0.000  0.000  0.000  0.000   2.31   4.65   0.09      0    535     86.2   1.60   0.00   1.00    3.84    3.94    3.70    1.12    0.73    0.40      0      0      0       0      55 20.05
 2014 217    75    59   21.0      5   2.08   2418   2723     71    880   5140   5722    908    7.8  0.012    582      6  0.000  0.000  0.000  0.000  0.000  0.000  0.000   2.29  12.24   0.10      0    582     86.2   1.60   0.00   1.00    4.00    4.00    3.99    1.21    0.80    0.48      0      0      0       0      55 20.20
 2014 218    76    60   21.0      5   2.08   2418   2723    116    940   5140   5767    908   12.8  0.020    627      6  0.000  0.000  0.000  0.000  0.000  0.000  0.000   2.27  18.58   0.11      0    627     86.2   1.60   0.00   1.00    4.00    4.00    4.00    1.28    0.85    0.55      0      0      0       0      55 20.35
 2014 219    77    61   21.0      5   2.08   2418   2723    161    981   5140   5812    908   17.8  0.028    672      6  0.000  0.000  0.000  0.000  0.000  0.000  0.000   2.26  24.03   0.12      0    672     86.2   1.60   0.00   1.00    4.00    4.00    4.00    1.33    0.89    0.58      0      0      0       0      55 20.40
 2014 220    78    62   21.0      5   2.08   2418   2723    210   1042   5140   5861    908   23.1  0.036    720      6  0.000  0.000  0.000  0.000  0.000  0.000  0.000   2.24  29.13   0.12      0    720     86.2   1.60   0.00   1.00    4.00    4.00    4.00    1.41    0.95    0.64      0      0      0       0      55 19.90
 2014 221    79    63   21.0      5   2.08   2418   2723    263   1093   5140   5913    908   28.9  0.044    773      6  0.000  0.000  0.000  0.370  0.000  0.000  0.000   2.22  33.97   0.13      0    773     86.2   1.60   0.00   1.00    4.00    4.00    4.00    1.49    1.00    0.69      0      0      0       0      55 19.25
 2014 222    80    64   21.0      5   2.08   2418   2723    316   1137   5140   5967    908   34.8  0.053    826      6  0.000  0.000  0.000  0.422  0.000  0.000  0.000   2.21  38.24   0.14      0    826     86.2   1.60   0.00   1.00    4.00    4.00    4.00    1.55    1.04    0.72      0      0      0       0      55 19.15
 2014 223    81    65   21.0      5   2.08   2418   2723    363   1208   5140   6014    908   40.0  0.060    873      6  0.000  0.000  0.000  0.390  0.000  0.000  0.000   2.19  41.56   0.15      0    873     86.2   1.60   0.00   1.00    4.00    4.00    4.00    1.66    1.11    0.78      0      0      0       0      55 20.10
 2014 224    82    66   21.0      5   2.08   2418   2723    409   1279   5140   6060    908   45.0  0.067    919      6  0.000  0.000  0.000  0.376  0.000  0.000  0.000   2.17  44.46   0.15      0    919     86.2   1.60   0.00   1.00    4.00    4.00    4.00    1.78    1.18    0.84      0      0      0       0      55 20.30
 2014 225    83    67   21.0      5   2.08   2418   2723    453   1331   5140   6104    908   49.9  0.074    963      6  0.000  0.000  0.000  0.325  0.000  0.000  0.000   2.16  47.02   0.16      0    963     86.2   1.60   0.00   1.00    4.00    4.00    4.00    1.86    1.24    0.88      0      0      0       0      55 20.50
 2014 226    84    68   21.0      5   2.08   2418   2723    502   1377   5140   6153    908   55.3  0.082   1012      6  0.000  0.000  0.000  0.156  0.000  0.000  0.000   2.14  49.58   0.16      0   1012     86.2   1.60   0.00   1.00    4.00    4.00    4.00    1.93    1.29    0.91      0      0      0       0      55 19.80
 2014 227    85    69   21.0      5   2.08   2418   2723    548   1455   5140   6199    908   60.3  0.088   1058      6  0.000  0.000  0.000  0.000  0.000  0.000  0.000   2.13  51.77   0.17      0   1058     86.2   1.60   0.00   1.00    4.00    4.00    4.00    2.06    1.38    0.96      0      0      0       0      55 20.25
 2014 228    86    70   21.0      5   2.08   2418   2723    593   1521   5140   6244    908   65.3  0.095   1104      6  0.000  0.000  0.000  0.000  0.000  0.000  0.000   2.11  53.75   0.18      0   1104     86.2   1.60   0.00   1.00    4.00    4.00    4.00    2.16    1.46    1.00      0      0      0       0      55 20.35
 2014 229    87    71   21.0      5   2.08   2418   2723    631   1591   5140   6282    908   69.5  0.100   1141      6  0.000  0.000  0.000  0.000  0.000  0.000  0.000   2.10  55.27   0.18      0   1141     86.2   1.60   0.00   1.00    4.00    4.00    4.00    2.27    1.54    1.04      0      0      0       0      55 21.37
 2014 230    88    72   21.0      5   2.08   2418   2723    675   1619   5140   6326    908   74.3  0.107   1185      6  0.000  0.000  0.000  0.000  0.000  0.000  0.000   2.08  56.94   0.19      0   1185     86.2   1.60   0.00   1.00    4.00    4.00    4.00    2.32    1.57    1.07      0      0      0       0      55 20.50
 2014 231    89    73   21.0      5   2.08   2418   2723    703   1638   5140   6354    908   77.4  0.111   1213      6  0.000  0.000  0.000  0.175  0.000  0.000  0.000   2.07  57.93   0.19      0   1213     86.2   1.60   0.00   1.00    4.00    4.00    4.00    2.35    1.60    1.09      0      0      0       0      55 22.46
 2014 232    90    74   21.0      5   2.08   2418   2723    749   1702   5140   6400    908   82.5  0.117   1259      6  0.000  0.000  0.000  0.158  0.000  0.000  0.000   2.06  59.47   0.20      0   1259     86.2   1.60   0.00   1.00    4.00    4.00    4.00    2.45    1.67    1.14      0      0      0       0      55 20.25
 2014 233    91    75   21.0      5   2.08   2418   2723    797   1756   5140   6448    908   87.8  0.124   1308      6  0.000  0.000  0.000  0.069  0.000  0.000  0.000   2.04  60.97   0.20      0   1308     86.2   1.60   0.00   1.00    4.00    4.00    4.00    2.53    1.74    1.20      0      0      0       0      55 19.90
 2014 234    92    76   21.0      5   2.08   2418   2723    841   1804   5140   6492    908   92.7  0.130   1352      6  0.000  0.000  0.000  0.173  0.000  0.000  0.000   2.02  62.24   0.21      0   1352     86.2   1.60   0.00   1.00    4.00    4.00    4.00    2.60    1.79    1.25      0      0      0       0      55 20.50
 2014 235    93    77   21.0      5   2.08   2418   2723    891   1843   5140   6541    908   98.1  0.136   1401      6  0.000  0.000  0.000  0.191  0.000  0.000  0.000   2.01  63.57   0.21      0   1401     86.2   1.60   0.00   1.00    4.00    4.00    4.00    2.66    1.84    1.30      0      0      0       0      55 19.80
 2014 236    94    78   21.0      5   2.08   2418   2723    935   1894   5140   6586    908  103.0  0.142   1446      6  0.000  0.000  0.000  0.198  0.000  0.000  0.000   1.99  64.69   0.22      0   1446     86.2   1.60   0.00   1.00    4.00    4.00    4.00    2.74    1.90    1.36      0      0      0       0      55 20.45
 2014 237    95    79   21.0      5   2.08   2418   2723    983   1932   5140   6634    908  108.3  0.148   1494      6  0.000  0.000  0.000  0.138  0.000  0.000  0.000   1.97  65.83   0.23      0   1494     86.2   1.60   0.00   1.00    4.00    4.00    4.00    2.80    1.95    1.40      0      0      0       0      55 19.90
 2014 238    96    80   21.0      5   2.08   2418   2723   1038   1958   5140   6689    908  114.3  0.155   1548      6  0.000  0.000  0.000  0.062  0.000  0.000  0.000   1.96  67.04   0.23      0   1548     86.2   1.60   0.00   1.00    4.00    4.00    4.00    2.85    1.99    1.44      0      0      0       0      55 18.15
 2014 239    97    81   21.0      5   2.08   2418   2723   1081   2009   5140   6732    908  119.0  0.161   1591      6  0.000  0.000  0.000  0.011  0.000  0.000  0.000   1.94  67.92   0.24      0   1591     86.2   1.60   0.00   1.00    4.00    4.00    4.00    2.93    2.05    1.50      0      0      0       0      55 20.70
 2014 240    98    82   21.0      5   2.08   2418   2723   1130   2070   5140   6781    908  124.5  0.167   1641      6  0.000  0.000  0.000  0.000  0.000  0.000  0.000   1.92  68.89   0.24      0   1641     86.2   1.60   0.00   1.00    4.00    4.00    4.00    3.02    2.13    1.57      0      0      0       0      55 19.75
 2014 241    99    83   21.0      5   2.03   2418   2723   1179   2135   5140   6830    908  129.8  0.173   1689      6  0.000  0.000  0.000  0.000  0.000  0.000  0.000   1.91  69.78   0.25      0   1689     83.8   1.60   0.00   1.00    4.00    4.00    4.00    3.12    2.21    1.65      0      0      0       0      55 19.90
 2014 242   100    84   21.0      5   1.93   2418   2723   1226   2202   5140   6877    908  135.0  0.178   1736      6  0.000  0.000  0.000  0.000  0.000  0.000  0.000   1.89  70.60   0.25      0   1736     79.7   1.60   0.00   1.00    4.00    4.00    4.00    3.23    2.29    1.73      0      0      0       0      55 20.10
 2014 243   101    85   21.0      5   1.83   2418   2723   1277   2261   5140   6928    908  140.6  0.184   1787      6  0.000  0.000  0.000  0.000  0.000  0.000  0.000   1.87  71.44   0.26      0   1787     75.5   1.60   0.00   1.00    4.00    4.00    4.00    3.32    2.37    1.80      0      0      0       0      55 19.45
 2014 244   102    86   21.0      5   1.71   2418   2723   1324   2318   5140   6975    908  145.8  0.190   1834      6  0.000  0.000  0.000  0.000  0.000  0.000  0.000   1.86  72.17   0.26      0   1834     70.9   1.60   0.00   1.00    4.00    4.00    4.00    3.40    2.44    1.86      0      0      0       0      55 20.15
 2014 245   103    87   21.0      5   1.60   2418   2723   1370   2328   5140   7021    908  150.9  0.195   1880      6  0.000  0.000  0.000  0.007  0.000  0.000  0.000   1.84  72.86   0.27      0   1880     66.0   1.60   0.00   1.00    4.00    4.00    4.00    3.42    2.45    1.88      0      0      0       0      55 20.20
 2014 246   104    88   21.0      5   1.47   2418   2723   1417   2368   5140   7068    908  156.1  0.201   1928      6  0.000  0.000  0.000  0.000  0.000  0.000  0.000   1.83  73.52   0.27      0   1928     60.9   1.60   0.00   1.00    4.00    4.00    4.00    3.48    2.50    1.92      0      0      0       0      55 20.05
 2014 247   105    89   21.0      5   1.47   2418   2723   1417   2368   5140   7068    908  156.1  0.201   1928      6  0.000  0.000  0.000  0.000  0.000  0.000  0.000   1.83  73.52   0.27      0   1928     60.9   1.60   0.00   1.00    4.00    4.00    4.00    3.54    2.56    1.97      0      0      0       0      55 20.79
 2014 248   106    90   21.0      5   1.47   2418   2723   1417   2368   5140   7068    908  156.1  0.201   1928      6  0.000  0.000  0.000  0.000  0.000  0.000  0.000   1.83  73.52   0.27      0   1928     60.9   1.60   0.00   1.00    4.00    4.00    4.00    3.61    2.61    2.02      0      0      0       0      55 20.55
 2014 249   107    91   21.0      5   1.47   2418   2723   1417   2368   5140   7068    908  156.1  0.201   1928      6  0.000  0.000  0.000  0.099  0.000  0.000  0.000   1.83  73.52   0.27      0   1928     60.9   1.60   0.00   1.00    4.00    4.00    4.00    3.67    2.66    2.07      0      0      0       0      55 19.90
 2014 250   108    92   21.0      5   1.47   2418   2723   1417   2368   5140   7068    908  156.1  0.201   1928      6  0.000  0.000  0.000  0.099  0.000  0.000  0.000   1.83  73.52   0.27      0   1928     60.9   1.60   0.00   1.00    4.00    4.00    4.00    3.73    2.71    2.12      0      0      0       0      55  0.00
