*SIMULATION OVERVIEW FILE

*DSSAT Cropping System Model Ver. 4.6.1.000 -release      AUG 23, 2017; 14:09:35
                                                                                
*RUN   1        : P1                        MZCER046 2\000002    1              
 MODEL          : MZCER046 - Maize                                              
 EXPERIMENT     : 2\000002 BN Calibracion Cerete 2013                           
 DATA PATH      : C:\L\0\00000                                                  
 TREATMENT  1   : P1                        MZCER046                            
                                                                                
                                                                                
 CROP           : Maize            CULTIVAR : PIO 30F35HRB_    ECOTYPE :IB0001  
 STARTING DATE  : APR 15 2013                                                   
 PLANTING DATE  : APR 15 2013        PLANTS/m2 :  6.2     ROW SPACING :  80.cm  
 WEATHER        : CNAT   2013                                                   
 SOIL           : CCESPI2017     TEXTURE : SL    -   Suelo Espinal Calibraci    
 SOIL INITIAL C : DEPTH:100cm EXTR. H2O: 83.6mm  NO3:  1.1kg/ha  NH4: 49.9kg/ha 
 WATER BALANCE  : IRRIGATE ON REPORTED DATE(S)                                  
 IRRIGATION     :        0 mm IN     0 APPLICATIONS                             
 NITROGEN BAL.  : SOIL-N & N-UPTAKE SIMULATION; NO N-FIXATION                   
 N-FERTILIZER   :      163 kg/ha IN     6 APPLICATIONS                          
 RESIDUE/MANURE : INITIAL :     0 kg/ha ;       0 kg/ha IN     0 APPLICATIONS   
 ENVIRONM. OPT. : DAYL=    0.00  SRAD=    0.00  TMAX=    0.00  TMIN=    0.00    
                  RAIN=    0.00  CO2 =    0.00  DEW =    0.00  WIND=    0.00    
 SIMULATION OPT : WATER   :Y  NITROGEN:Y  N-FIX:N  PHOSPH :N  PESTS  :N         
                  PHOTO   :C  ET      :R  INFIL:S  HYDROL :R  SOM    :G         
                  CO2 396ppm  NSWIT   :1  EVAP :S  SOIL   :2  STEMP  :D         
 MANAGEMENT OPT : PLANTING:R  IRRIG   :R  FERT :D  RESIDUE:R  HARVEST:A         
                  WEATHER :M  TILLAGE :N                                        
                                                                                
*SUMMARY OF SOIL AND GENETIC INPUT PARAMETERS                                   
                                                                                
   SOIL LOWER UPPER   SAT  EXTR  INIT   ROOT   BULK     pH    NO3    NH4    ORG 
  DEPTH LIMIT LIMIT    SW    SW    SW   DIST   DENS                          C  
   cm   cm3/cm3    cm3/cm3    cm3/cm3         g/cm3         ugN/g  ugN/g     %  
------------------------------------------------------------------------------- 
  0-  5 0.160 0.252 0.376 0.092 0.252   1.00   1.69   6.60   0.21   3.62   0.45 
  5- 15 0.160 0.252 0.376 0.092 0.252   1.00   1.69   6.60   0.21   3.62   0.45 
 15- 30 0.160 0.252 0.376 0.092 0.252   1.00   1.69   6.60   0.21   3.62   0.45 
 30- 53 0.120 0.200 0.440 0.080 0.200   0.27   1.40   7.10   0.00   3.22   0.17 
 53- 77 0.120 0.200 0.440 0.080 0.200   0.27   1.40   7.10   0.00   3.22   0.17 
 77-100 0.120 0.200 0.440 0.080 0.200   0.27   1.40   7.10   0.00   3.22   0.17 
                                                                                
TOT-100  13.2  21.6  42.1   8.4  21.6  <--cm   -  kg/ha-->    1.1   49.9  39475 
SOIL ALBEDO    : 0.09      EVAPORATION LIMIT : 6.00         MIN. FACTOR  : 1.00 
RUNOFF CURVE # :76.00      DRAINAGE RATE     : 0.60         FERT. FACTOR : 1.00 
                                                                                
 Maize      CULTIVAR :000002-PIO 30F35HRB_      ECOTYPE :IB0001                 
 P1     : 170.00  P2     : 0.3000  P5     : 875.00                              
 G2     : 750.00  G3     :  6.500  PHINT  : 45.000                              


*SIMULATED CROP AND SOIL STATUS AT MAIN DEVELOPMENT STAGES

 RUN NO.     1     P1                      

        CROP GROWTH     BIOMASS         LEAF   CROP N     STRESS      STRESS                                           
   DATE  AGE STAGE        kg/ha    LAI   NUM  kg/ha  %   H2O  Nitr Phos1 Phos2  RSTG                                   
 ------  --- ----------   -----  -----  ----  ---  ---  ----  ----  ----  ----  ----                                   
 15 APR    0 Sowing           0   0.00   0.0    0  0.0  0.00  0.00  0.00  0.00     8
 15 APR    0 Start Sim        0   0.00   0.0    0  0.0  0.00  0.00  0.00  0.00     8
 16 APR    1 Germinate        0   0.00   0.0    0  0.0  0.00  0.00  0.00  0.00     9
 20 APR    5 Emergence       25   0.00   2.1    1  4.4  0.00  0.01  0.00  0.00     1
 29 APR   14 End Juveni      86   0.19   6.7    3  3.2  0.00  0.00  0.00  0.00     2
  6 MAY   21 Floral Ini     359   0.64   9.7   13  3.6  0.00  0.00  0.00  0.00     3
  6 JUN   52 75% Silkin    7052   3.80  20.0  139  2.0  0.00  0.00  0.00  0.00     4
 15 JUN   61 Beg Gr Fil    9320   3.49  20.0  139  1.5  0.19  0.00  0.00  0.00     5
 20 JUL   96 End Gr Fil   13340   1.54  20.0  141  1.1  0.55  0.00  0.00  0.00     6
 22 JUL   98 Maturity     13340   1.54  20.0  141  1.1  0.90  0.00  0.00  0.00    10

     Conditions not met during defined window for harvesting                       
     between DAY 2013 203 and DAY 2001   1                                         

 23 JUL   99 Harvest      13340   1.54  20.0  141  1.1  0.90  0.00  0.00  0.00    10


*MAIN GROWTH AND DEVELOPMENT VARIABLES

@     VARIABLE                                         SIMULATED     MEASURED
      --------                                         ---------     --------
      Anthesis day (dap)                                      52          -99
      Physiological maturity day (dap)                        98          -99
      Yield at harvest maturity (kg [dm]/ha)                4307          -99
      Number at maturity (no/m2)                            2718          -99
      Unit wt at maturity (g [dm]/unit)                   0.1584          -99
      Number at maturity (no/unit)                         438.4          -99
      Tops weight at maturity (kg [dm]/ha)                 13340          -99
      By-product produced (stalk) at maturity (kg[dm]/ha    9094          -99
      Leaf area index, maximum                              3.96          -99
      Harvest index at maturity                            0.323          -99
      Grain N at maturity (kg/ha)                             78          -99
      Tops N at maturity (kg/ha)                             141          -99
      Stem N at maturity (kg/ha)                              63          -99
      Grain N at maturity (%)                                1.8          -99
      Tops weight at anthesis (kg [dm]/ha)                  6799          -99
      Tops N at anthesis (kg/ha)                             139          -99
      Leaf number per stem at maturity                     19.98          -99
      Emergence day (dap)                                      5          -99


*ENVIRONMENTAL AND STRESS FACTORS

 |-----Development Phase------|--------------------------------------Environment--------------------------------------|-----------------Stress-----------------|
                              |---------------Average--------------|-----Cumulative-----|--------Count of days--------|          (0=Min, 1=Max Stress)         |
                         Time  Temp  Temp  Temp Solar Photop                Evapo    Pot TMIN TMIN TMAX TMAX TMAX RAIN|----Water----|---Nitrogen--|-Phosphorus-|
                         Span   Max   Min  Mean   Rad  [day]    CO2   Rain  Trans     ET   <    <    >    >    >    >   Photo         Photo         Photo
                         days    øC    øC    øC MJ/m2     hr    ppm     mm     mm     mm  0øC  2øC 30øC 32øC 34øC  0mm  synth Growth  synth Growth  synth Growth
----------------------------------------------------------------------------------------------------------------------------------------------------------------
 Emergence-End Juvenile     9  32.2  22.1  27.1  19.5  24.00  396.0   12.2   26.3   51.3    0    0    8    5    1    2  0.000  0.000  0.002  0.006  0.000  0.000
 End Juvenil-Floral Init    7  31.2  22.2  26.7  17.3  24.00  396.0  179.6   26.0   34.1    0    0    4    3    0    3  0.000  0.000  0.001  0.003  0.000  0.000
 Floral Init-End Lf Grow   31  30.7  22.1  26.4  16.8  24.00  396.1  224.3  130.5  131.0    0    0   21    7    0   20  0.000  0.000  0.002  0.004  0.000  0.000
 End Lf Grth-Beg Grn Fil    9  32.2  21.0  26.6  18.9  24.00  396.2    4.8   38.7   41.5    0    0    9    4    1    1  0.060  0.114  0.000  0.000  0.000  0.000
 Grain Filling Phase       35  32.7  22.0  27.3  19.2  24.00  396.4  104.0   91.9  170.4    0    0   32   26    4   13  0.472  0.547  0.000  0.000  0.000  0.000


 Planting to Harvest       99  31.9  22.0  27.0  18.3  24.00  396.2  541.2  336.1  473.0    0    0   81   52   11   43  0.188  0.230  0.001  0.002  0.000  0.000
----------------------------------------------------------------------------------------------------------------------------------------------------------------


*Resource Productivity
 Growing season length:  99 days 

 Precipitation during growing season       541.2 mm[rain]
   Dry Matter Productivity                  2.46 kg[DM]/m3[rain]          =   24.6 kg[DM]/ha per mm[rain]
   Yield Productivity                       0.80 kg[grain yield]/m3[rain] =    8.0 kg[yield]/ha per mm[rain]

 Evapotranspiration during growing season  336.1 mm[ET]
   Dry Matter Productivity                  3.97 kg[DM]/m3[ET]            =   39.7 kg[DM]/ha per mm[ET]
   Yield Productivity                       1.28 kg[grain yield]/m3[ET]   =   12.8 kg[yield]/ha per mm[ET]

 Transpiration during growing season       210.0 mm[EP]
   Dry Matter Productivity                  6.35 kg[DM]/m3[EP]            =   63.5 kg[DM]/ha per mm[EP]
   Yield Productivity                       2.05 kg[grain yield]/m3[EP]   =   20.5 kg[yield]/ha per mm[EP]

 N applied during growing season            163. kg[N applied]/ha
   Dry Matter Productivity                  81.8 kg[DM]/kg[N applied]
   Yield Productivity                       26.4 kg[yield]/kg[N applied]

 N uptake during growing season              153 kg[N uptake]/ha
   Dry Matter Productivity                  87.2 kg[DM]/kg[N uptake]
   Yield Productivity                       28.2 kg[yield]/kg[N uptake]

--------------------------------------------------------------------------------------------------------------

                     Maize YIELD :     4307 kg/ha    [Dry weight] 

**************************************************************************************************************

*DSSAT Cropping System Model Ver. 4.6.1.000 -release      AUG 23, 2017; 14:09:35
                                                                                
*RUN   2        : P2                        MZCER046 2\000002    2              
 MODEL          : MZCER046 - Maize                                              
 EXPERIMENT     : 2\000002 BN Calibracion Cerete 2013                           
 DATA PATH      : C:\L\0\00000                                                  
 TREATMENT  2   : P2                        MZCER046                            
                                                                                
                                                                                
 CROP           : Maize            CULTIVAR : PIO 30F35HRB_    ECOTYPE :IB0001  
 STARTING DATE  : APR 15 2013                                                   
 PLANTING DATE  : APR 29 2013        PLANTS/m2 :  6.2     ROW SPACING :  80.cm  
 WEATHER        : CNAT   2013                                                   
 SOIL           : CCESPI2017     TEXTURE : SL    -   Suelo Espinal Calibraci    
 SOIL INITIAL C : DEPTH:100cm EXTR. H2O: 83.6mm  NO3:  1.1kg/ha  NH4: 49.9kg/ha 
 WATER BALANCE  : IRRIGATE ON REPORTED DATE(S)                                  
 IRRIGATION     :        0 mm IN     0 APPLICATIONS                             
 NITROGEN BAL.  : SOIL-N & N-UPTAKE SIMULATION; NO N-FIXATION                   
 N-FERTILIZER   :      163 kg/ha IN     6 APPLICATIONS                          
 RESIDUE/MANURE : INITIAL :     0 kg/ha ;       0 kg/ha IN     0 APPLICATIONS   
 ENVIRONM. OPT. : DAYL=    0.00  SRAD=    0.00  TMAX=    0.00  TMIN=    0.00    
                  RAIN=    0.00  CO2 =    0.00  DEW =    0.00  WIND=    0.00    
 SIMULATION OPT : WATER   :Y  NITROGEN:Y  N-FIX:N  PHOSPH :N  PESTS  :N         
                  PHOTO   :C  ET      :R  INFIL:S  HYDROL :R  SOM    :G         
                  CO2 396ppm  NSWIT   :1  EVAP :S  SOIL   :2  STEMP  :D         
 MANAGEMENT OPT : PLANTING:R  IRRIG   :R  FERT :D  RESIDUE:R  HARVEST:A         
                  WEATHER :M  TILLAGE :N                                        
                                                                                
*SUMMARY OF SOIL AND GENETIC INPUT PARAMETERS                                   
                                                                                
   SOIL LOWER UPPER   SAT  EXTR  INIT   ROOT   BULK     pH    NO3    NH4    ORG 
  DEPTH LIMIT LIMIT    SW    SW    SW   DIST   DENS                          C  
   cm   cm3/cm3    cm3/cm3    cm3/cm3         g/cm3         ugN/g  ugN/g     %  
------------------------------------------------------------------------------- 
  0-  5 0.160 0.252 0.376 0.092 0.252   1.00   1.69   6.60   0.21   3.62   0.45 
  5- 15 0.160 0.252 0.376 0.092 0.252   1.00   1.69   6.60   0.21   3.62   0.45 
 15- 30 0.160 0.252 0.376 0.092 0.252   1.00   1.69   6.60   0.21   3.62   0.45 
 30- 53 0.120 0.200 0.440 0.080 0.200   0.27   1.40   7.10   0.00   3.22   0.17 
 53- 77 0.120 0.200 0.440 0.080 0.200   0.27   1.40   7.10   0.00   3.22   0.17 
 77-100 0.120 0.200 0.440 0.080 0.200   0.27   1.40   7.10   0.00   3.22   0.17 
                                                                                
TOT-100  13.2  21.6  42.1   8.4  21.6  <--cm   -  kg/ha-->    1.1   49.9  39475 
SOIL ALBEDO    : 0.09      EVAPORATION LIMIT : 6.00         MIN. FACTOR  : 1.00 
RUNOFF CURVE # :76.00      DRAINAGE RATE     : 0.60         FERT. FACTOR : 1.00 
                                                                                
 Maize      CULTIVAR :000002-PIO 30F35HRB_      ECOTYPE :IB0001                 
 P1     : 170.00  P2     : 0.3000  P5     : 875.00                              
 G2     : 750.00  G3     :  6.500  PHINT  : 45.000                              


*SIMULATED CROP AND SOIL STATUS AT MAIN DEVELOPMENT STAGES

 RUN NO.     2     P2                      

        CROP GROWTH     BIOMASS         LEAF   CROP N     STRESS      STRESS                                           
   DATE  AGE STAGE        kg/ha    LAI   NUM  kg/ha  %   H2O  Nitr Phos1 Phos2  RSTG                                   
 ------  --- ----------   -----  -----  ----  ---  ---  ----  ----  ----  ----  ----                                   
 15 APR    0 Start Sim        0   0.00   0.0    0  0.0  0.00  0.00  0.00  0.00     7
 29 APR    0 Sowing           0   0.00   0.0    0  0.0  0.00  0.00  0.00  0.00     8
 30 APR    1 Germinate        0   0.00   0.0    0  0.0  0.00  0.00  0.00  0.00     9
  4 MAY    5 Emergence       25   0.00   2.2    1  4.4  0.00  0.01  0.00  0.00     1
 13 MAY   14 End Juveni      80   0.17   6.5    3  3.2  0.00  0.00  0.00  0.00     2
 20 MAY   21 Floral Ini     320   0.58   9.5   12  3.6  0.00  0.00  0.00  0.00     3
 19 JUN   51 75% Silkin    5595   2.95  19.7  102  1.8  0.16  0.05  0.00  0.00     4
 28 JUN   60 Beg Gr Fil    5725   2.03  19.7  103  1.8  0.88  0.03  0.00  0.00     5
  1 AUG   94 End Gr Fil    6929   0.96  19.7  103  1.5  0.52  0.00  0.00  0.00     6
  3 AUG   96 Maturity      6929   0.96  19.7  103  1.5  0.95  0.00  0.00  0.00    10

     Conditions not met during defined window for harvesting                       
     between DAY 2013 215 and DAY 2001   1                                         

  4 AUG   97 Harvest       6929   0.96  19.7  103  1.5  0.95  0.00  0.00  0.00    10


*MAIN GROWTH AND DEVELOPMENT VARIABLES

@     VARIABLE                                         SIMULATED     MEASURED
      --------                                         ---------     --------
      Anthesis day (dap)                                      51          -99
      Physiological maturity day (dap)                        96          -99
      Yield at harvest maturity (kg [dm]/ha)                1228          -99
      Number at maturity (no/m2)                             781          -99
      Unit wt at maturity (g [dm]/unit)                   0.1573          -99
      Number at maturity (no/unit)                         126.0          -99
      Tops weight at maturity (kg [dm]/ha)                  6929          -99
      By-product produced (stalk) at maturity (kg[dm]/ha    5758          -99
      Leaf area index, maximum                              3.33          -99
      Harvest index at maturity                            0.177          -99
      Grain N at maturity (kg/ha)                             22          -99
      Tops N at maturity (kg/ha)                             103          -99
      Stem N at maturity (kg/ha)                              81          -99
      Grain N at maturity (%)                                1.8          -99
      Tops weight at anthesis (kg [dm]/ha)                  5531          -99
      Tops N at anthesis (kg/ha)                             102          -99
      Leaf number per stem at maturity                     19.74          -99
      Emergence day (dap)                                      5          -99


*ENVIRONMENTAL AND STRESS FACTORS

 |-----Development Phase------|--------------------------------------Environment--------------------------------------|-----------------Stress-----------------|
                              |---------------Average--------------|-----Cumulative-----|--------Count of days--------|          (0=Min, 1=Max Stress)         |
                         Time  Temp  Temp  Temp Solar Photop                Evapo    Pot TMIN TMIN TMAX TMAX TMAX RAIN|----Water----|---Nitrogen--|-Phosphorus-|
                         Span   Max   Min  Mean   Rad  [day]    CO2   Rain  Trans     ET   <    <    >    >    >    >   Photo         Photo         Photo
                         days    øC    øC    øC MJ/m2     hr    ppm     mm     mm     mm  0øC  2øC 30øC 32øC 34øC  0mm  synth Growth  synth Growth  synth Growth
----------------------------------------------------------------------------------------------------------------------------------------------------------------
 Emergence-End Juvenile     9  30.8  22.5  26.6  16.1  24.00  396.0   60.1   33.3   42.2    0    0    6    3    0    4  0.000  0.000  0.003  0.006  0.000  0.000
 End Juvenil-Floral Init    7  30.5  22.5  26.5  15.1  24.00  396.1   56.4   29.7   29.8    0    0    4    3    0    4  0.000  0.000  0.000  0.001  0.000  0.000
 Floral Init-End Lf Grow   30  31.5  21.6  26.6  18.5  24.00  396.2  122.7  127.8  140.4    0    0   25   10    1   15  0.085  0.137  0.017  0.042  0.000  0.000
 End Lf Grth-Beg Grn Fil    9  33.6  22.6  28.1  18.9  24.00  396.4    5.1   11.6   43.3    0    0    9    9    2    4  0.792  0.862  0.019  0.048  0.000  0.000
 Grain Filling Phase       34  32.9  21.5  27.2  19.3  24.00  396.5  112.4   90.2  170.3    0    0   31   24   10   10  0.453  0.520  0.000  0.000  0.000  0.000


 Planting to Harvest       97  32.2  21.9  27.0  18.3  24.00  396.3  526.4  308.9  465.9    0    0   81   54   15   39  0.277  0.334  0.007  0.018  0.000  0.000
----------------------------------------------------------------------------------------------------------------------------------------------------------------


*Resource Productivity
 Growing season length:  97 days 

 Precipitation during growing season       526.4 mm[rain]
   Dry Matter Productivity                  1.32 kg[DM]/m3[rain]          =   13.2 kg[DM]/ha per mm[rain]
   Yield Productivity                       0.23 kg[grain yield]/m3[rain] =    2.3 kg[yield]/ha per mm[rain]

 Evapotranspiration during growing season  308.9 mm[ET]
   Dry Matter Productivity                  2.24 kg[DM]/m3[ET]            =   22.4 kg[DM]/ha per mm[ET]
   Yield Productivity                       0.40 kg[grain yield]/m3[ET]   =    4.0 kg[yield]/ha per mm[ET]

 Transpiration during growing season       167.1 mm[EP]
   Dry Matter Productivity                  4.15 kg[DM]/m3[EP]            =   41.5 kg[DM]/ha per mm[EP]
   Yield Productivity                       0.74 kg[grain yield]/m3[EP]   =    7.4 kg[yield]/ha per mm[EP]

 N applied during growing season            163. kg[N applied]/ha
   Dry Matter Productivity                  42.5 kg[DM]/kg[N applied]
   Yield Productivity                        7.5 kg[yield]/kg[N applied]

 N uptake during growing season              112 kg[N uptake]/ha
   Dry Matter Productivity                  61.9 kg[DM]/kg[N uptake]
   Yield Productivity                       11.0 kg[yield]/kg[N uptake]

--------------------------------------------------------------------------------------------------------------

                     Maize YIELD :     1228 kg/ha    [Dry weight] 

**************************************************************************************************************

*DSSAT Cropping System Model Ver. 4.6.1.000 -release      AUG 23, 2017; 14:09:35
                                                                                
*RUN   3        : P3                        MZCER046 2\000002    3              
 MODEL          : MZCER046 - Maize                                              
 EXPERIMENT     : 2\000002 BN Calibracion Cerete 2013                           
 DATA PATH      : C:\L\0\00000                                                  
 TREATMENT  3   : P3                        MZCER046                            
                                                                                
                                                                                
 CROP           : Maize            CULTIVAR : PIO 30F35HRB_    ECOTYPE :IB0001  
 STARTING DATE  : APR 15 2013                                                   
 PLANTING DATE  : MAY 13 2013        PLANTS/m2 :  6.2     ROW SPACING :  80.cm  
 WEATHER        : CNAT   2013                                                   
 SOIL           : CCESPI2017     TEXTURE : SL    -   Suelo Espinal Calibraci    
 SOIL INITIAL C : DEPTH:100cm EXTR. H2O: 83.6mm  NO3:  1.1kg/ha  NH4: 49.9kg/ha 
 WATER BALANCE  : IRRIGATE ON REPORTED DATE(S)                                  
 IRRIGATION     :        0 mm IN     0 APPLICATIONS                             
 NITROGEN BAL.  : SOIL-N & N-UPTAKE SIMULATION; NO N-FIXATION                   
 N-FERTILIZER   :      163 kg/ha IN     6 APPLICATIONS                          
 RESIDUE/MANURE : INITIAL :     0 kg/ha ;       0 kg/ha IN     0 APPLICATIONS   
 ENVIRONM. OPT. : DAYL=    0.00  SRAD=    0.00  TMAX=    0.00  TMIN=    0.00    
                  RAIN=    0.00  CO2 =    0.00  DEW =    0.00  WIND=    0.00    
 SIMULATION OPT : WATER   :Y  NITROGEN:Y  N-FIX:N  PHOSPH :N  PESTS  :N         
                  PHOTO   :C  ET      :R  INFIL:S  HYDROL :R  SOM    :G         
                  CO2 396ppm  NSWIT   :1  EVAP :S  SOIL   :2  STEMP  :D         
 MANAGEMENT OPT : PLANTING:R  IRRIG   :R  FERT :D  RESIDUE:R  HARVEST:A         
                  WEATHER :M  TILLAGE :N                                        
                                                                                
*SUMMARY OF SOIL AND GENETIC INPUT PARAMETERS                                   
                                                                                
   SOIL LOWER UPPER   SAT  EXTR  INIT   ROOT   BULK     pH    NO3    NH4    ORG 
  DEPTH LIMIT LIMIT    SW    SW    SW   DIST   DENS                          C  
   cm   cm3/cm3    cm3/cm3    cm3/cm3         g/cm3         ugN/g  ugN/g     %  
------------------------------------------------------------------------------- 
  0-  5 0.160 0.252 0.376 0.092 0.252   1.00   1.69   6.60   0.21   3.62   0.45 
  5- 15 0.160 0.252 0.376 0.092 0.252   1.00   1.69   6.60   0.21   3.62   0.45 
 15- 30 0.160 0.252 0.376 0.092 0.252   1.00   1.69   6.60   0.21   3.62   0.45 
 30- 53 0.120 0.200 0.440 0.080 0.200   0.27   1.40   7.10   0.00   3.22   0.17 
 53- 77 0.120 0.200 0.440 0.080 0.200   0.27   1.40   7.10   0.00   3.22   0.17 
 77-100 0.120 0.200 0.440 0.080 0.200   0.27   1.40   7.10   0.00   3.22   0.17 
                                                                                
TOT-100  13.2  21.6  42.1   8.4  21.6  <--cm   -  kg/ha-->    1.1   49.9  39475 
SOIL ALBEDO    : 0.09      EVAPORATION LIMIT : 6.00         MIN. FACTOR  : 1.00 
RUNOFF CURVE # :76.00      DRAINAGE RATE     : 0.60         FERT. FACTOR : 1.00 
                                                                                
 Maize      CULTIVAR :000002-PIO 30F35HRB_      ECOTYPE :IB0001                 
 P1     : 170.00  P2     : 0.3000  P5     : 875.00                              
 G2     : 750.00  G3     :  6.500  PHINT  : 45.000                              


*SIMULATED CROP AND SOIL STATUS AT MAIN DEVELOPMENT STAGES

 RUN NO.     3     P3                      

        CROP GROWTH     BIOMASS         LEAF   CROP N     STRESS      STRESS                                           
   DATE  AGE STAGE        kg/ha    LAI   NUM  kg/ha  %   H2O  Nitr Phos1 Phos2  RSTG                                   
 ------  --- ----------   -----  -----  ----  ---  ---  ----  ----  ----  ----  ----                                   
 15 APR    0 Start Sim        0   0.00   0.0    0  0.0  0.00  0.00  0.00  0.00     7
 13 MAY    0 Sowing           0   0.00   0.0    0  0.0  0.00  0.00  0.00  0.00     8
 14 MAY    1 Germinate        0   0.00   0.0    0  0.0  0.00  0.00  0.00  0.00     9
 18 MAY    5 Emergence       25   0.00   2.2    1  4.4  0.00  0.01  0.00  0.00     1
 28 MAY   15 End Juveni      93   0.20   6.9    3  3.2  0.00  0.00  0.00  0.00     2
  4 JUN   22 Floral Ini     370   0.65   9.8   13  3.6  0.00  0.00  0.00  0.00     3
  4 JUL   52 75% Silkin    4168   2.01  20.2   80  1.9  0.37  0.07  0.00  0.00     4
 13 JUL   61 Beg Gr Fil    6269   1.97  20.2   80  1.3  0.11  0.00  0.00  0.00     5
 16 AUG   95 End Gr Fil    8924   0.78  20.2   93  1.0  0.59  0.00  0.00  0.00     6
 18 AUG   97 Maturity      8924   0.78  20.2   93  1.0  0.00  0.00  0.00  0.00    10

     Conditions not met during defined window for harvesting                       
     between DAY 2013 230 and DAY 2001   1                                         

 19 AUG   98 Harvest       8924   0.78  20.2   93  1.0  0.00  0.00  0.00  0.00    10


*MAIN GROWTH AND DEVELOPMENT VARIABLES

@     VARIABLE                                         SIMULATED     MEASURED
      --------                                         ---------     --------
      Anthesis day (dap)                                      52          -99
      Physiological maturity day (dap)                        97          -99
      Yield at harvest maturity (kg [dm]/ha)                3449          -99
      Number at maturity (no/m2)                            2480          -99
      Unit wt at maturity (g [dm]/unit)                   0.1391          -99
      Number at maturity (no/unit)                         399.9          -99
      Tops weight at maturity (kg [dm]/ha)                  8924          -99
      By-product produced (stalk) at maturity (kg[dm]/ha    5521          -99
      Leaf area index, maximum                              2.09          -99
      Harvest index at maturity                            0.386          -99
      Grain N at maturity (kg/ha)                             63          -99
      Tops N at maturity (kg/ha)                              93          -99
      Stem N at maturity (kg/ha)                              30          -99
      Grain N at maturity (%)                                1.8          -99
      Tops weight at anthesis (kg [dm]/ha)                  3919          -99
      Tops N at anthesis (kg/ha)                              78          -99
      Leaf number per stem at maturity                     20.25          -99
      Emergence day (dap)                                      5          -99


*ENVIRONMENTAL AND STRESS FACTORS

 |-----Development Phase------|--------------------------------------Environment--------------------------------------|-----------------Stress-----------------|
                              |---------------Average--------------|-----Cumulative-----|--------Count of days--------|          (0=Min, 1=Max Stress)         |
                         Time  Temp  Temp  Temp Solar Photop                Evapo    Pot TMIN TMIN TMAX TMAX TMAX RAIN|----Water----|---Nitrogen--|-Phosphorus-|
                         Span   Max   Min  Mean   Rad  [day]    CO2   Rain  Trans     ET   <    <    >    >    >    >   Photo         Photo         Photo
                         days    øC    øC    øC MJ/m2     hr    ppm     mm     mm     mm  0øC  2øC 30øC 32øC 34øC  0mm  synth Growth  synth Growth  synth Growth
----------------------------------------------------------------------------------------------------------------------------------------------------------------
 Emergence-End Juvenile    10  30.3  21.8  26.0  17.1  24.00  396.2   91.1   45.6   49.0    0    0    5    2    0    7  0.000  0.000  0.003  0.006  0.000  0.000
 End Juvenil-Floral Init    7  31.0  21.8  26.4  18.3  24.00  396.2   26.4   30.5   35.7    0    0    6    1    0    5  0.000  0.000  0.001  0.003  0.000  0.000
 Floral Init-End Lf Grow   30  32.7  21.9  27.3  19.2  24.00  396.3   95.5   88.4  149.1    0    0   29   20    3   10  0.270  0.368  0.027  0.067  0.000  0.000
 End Lf Grth-Beg Grn Fil    9  31.9  21.3  26.6  20.2  24.00  396.4   13.3   42.1   45.8    0    0    8    5    0    4  0.004  0.040  0.000  0.000  0.000  0.000
 Grain Filling Phase       34  33.7  21.8  27.7  18.8  24.00  396.6   85.3   72.1  172.0    0    0   33   27   17    8  0.549  0.612  0.000  0.000  0.000  0.000


 Planting to Harvest       98  32.4  21.9  27.2  18.5  24.00  396.4  368.7  307.1  485.2    0    0   86   59   20   40  0.273  0.328  0.009  0.021  0.000  0.000
----------------------------------------------------------------------------------------------------------------------------------------------------------------


*Resource Productivity
 Growing season length:  98 days 

 Precipitation during growing season       368.7 mm[rain]
   Dry Matter Productivity                  2.42 kg[DM]/m3[rain]          =   24.2 kg[DM]/ha per mm[rain]
   Yield Productivity                       0.94 kg[grain yield]/m3[rain] =    9.4 kg[yield]/ha per mm[rain]

 Evapotranspiration during growing season  307.1 mm[ET]
   Dry Matter Productivity                  2.91 kg[DM]/m3[ET]            =   29.1 kg[DM]/ha per mm[ET]
   Yield Productivity                       1.12 kg[grain yield]/m3[ET]   =   11.2 kg[yield]/ha per mm[ET]

 Transpiration during growing season       156.9 mm[EP]
   Dry Matter Productivity                  5.69 kg[DM]/m3[EP]            =   56.9 kg[DM]/ha per mm[EP]
   Yield Productivity                       2.20 kg[grain yield]/m3[EP]   =   22.0 kg[yield]/ha per mm[EP]

 N applied during growing season            163. kg[N applied]/ha
   Dry Matter Productivity                  54.7 kg[DM]/kg[N applied]
   Yield Productivity                       21.2 kg[yield]/kg[N applied]

 N uptake during growing season              103 kg[N uptake]/ha
   Dry Matter Productivity                  86.6 kg[DM]/kg[N uptake]
   Yield Productivity                       33.5 kg[yield]/kg[N uptake]

--------------------------------------------------------------------------------------------------------------

                     Maize YIELD :     3449 kg/ha    [Dry weight] 

**************************************************************************************************************

*DSSAT Cropping System Model Ver. 4.6.1.000 -release      AUG 23, 2017; 14:09:35
                                                                                
*RUN   4        : P4                        MZCER046 2\000002    4              
 MODEL          : MZCER046 - Maize                                              
 EXPERIMENT     : 2\000002 BN Calibracion Cerete 2013                           
 DATA PATH      : C:\L\0\00000                                                  
 TREATMENT  4   : P4                        MZCER046                            
                                                                                
                                                                                
 CROP           : Maize            CULTIVAR : PIO 30F35HRB_    ECOTYPE :IB0001  
 STARTING DATE  : SEP 26 2013                                                   
 PLANTING DATE  : SEP 26 2013        PLANTS/m2 :  6.2     ROW SPACING :  80.cm  
 WEATHER        : CNAT   2013                                                   
 SOIL           : CCESPI2017     TEXTURE : SL    -   Suelo Espinal Calibraci    
 SOIL INITIAL C : DEPTH:100cm EXTR. H2O: 83.6mm  NO3:  1.1kg/ha  NH4: 49.9kg/ha 
 WATER BALANCE  : IRRIGATE ON REPORTED DATE(S)                                  
 IRRIGATION     :        0 mm IN     0 APPLICATIONS                             
 NITROGEN BAL.  : SOIL-N & N-UPTAKE SIMULATION; NO N-FIXATION                   
 N-FERTILIZER   :      163 kg/ha IN     6 APPLICATIONS                          
 RESIDUE/MANURE : INITIAL :     0 kg/ha ;       0 kg/ha IN     0 APPLICATIONS   
 ENVIRONM. OPT. : DAYL=    0.00  SRAD=    0.00  TMAX=    0.00  TMIN=    0.00    
                  RAIN=    0.00  CO2 =    0.00  DEW =    0.00  WIND=    0.00    
 SIMULATION OPT : WATER   :Y  NITROGEN:Y  N-FIX:N  PHOSPH :N  PESTS  :N         
                  PHOTO   :C  ET      :R  INFIL:S  HYDROL :R  SOM    :G         
                  CO2 397ppm  NSWIT   :1  EVAP :S  SOIL   :2  STEMP  :D         
 MANAGEMENT OPT : PLANTING:R  IRRIG   :R  FERT :D  RESIDUE:R  HARVEST:A         
                  WEATHER :M  TILLAGE :N                                        
                                                                                
*SUMMARY OF SOIL AND GENETIC INPUT PARAMETERS                                   
                                                                                
   SOIL LOWER UPPER   SAT  EXTR  INIT   ROOT   BULK     pH    NO3    NH4    ORG 
  DEPTH LIMIT LIMIT    SW    SW    SW   DIST   DENS                          C  
   cm   cm3/cm3    cm3/cm3    cm3/cm3         g/cm3         ugN/g  ugN/g     %  
------------------------------------------------------------------------------- 
  0-  5 0.160 0.252 0.376 0.092 0.252   1.00   1.69   6.60   0.21   3.62   0.45 
  5- 15 0.160 0.252 0.376 0.092 0.252   1.00   1.69   6.60   0.21   3.62   0.45 
 15- 30 0.160 0.252 0.376 0.092 0.252   1.00   1.69   6.60   0.21   3.62   0.45 
 30- 53 0.120 0.200 0.440 0.080 0.200   0.27   1.40   7.10   0.00   3.22   0.17 
 53- 77 0.120 0.200 0.440 0.080 0.200   0.27   1.40   7.10   0.00   3.22   0.17 
 77-100 0.120 0.200 0.440 0.080 0.200   0.27   1.40   7.10   0.00   3.22   0.17 
                                                                                
TOT-100  13.2  21.6  42.1   8.4  21.6  <--cm   -  kg/ha-->    1.1   49.9  39475 
SOIL ALBEDO    : 0.09      EVAPORATION LIMIT : 6.00         MIN. FACTOR  : 1.00 
RUNOFF CURVE # :76.00      DRAINAGE RATE     : 0.60         FERT. FACTOR : 1.00 
                                                                                
 Maize      CULTIVAR :000002-PIO 30F35HRB_      ECOTYPE :IB0001                 
 P1     : 170.00  P2     : 0.3000  P5     : 875.00                              
 G2     : 750.00  G3     :  6.500  PHINT  : 45.000                              


*SIMULATED CROP AND SOIL STATUS AT MAIN DEVELOPMENT STAGES

 RUN NO.     4     P4                      

        CROP GROWTH     BIOMASS         LEAF   CROP N     STRESS      STRESS                                           
   DATE  AGE STAGE        kg/ha    LAI   NUM  kg/ha  %   H2O  Nitr Phos1 Phos2  RSTG                                   
 ------  --- ----------   -----  -----  ----  ---  ---  ----  ----  ----  ----  ----                                   
 26 SEP    0 Sowing           0   0.00   0.0    0  0.0  0.00  0.00  0.00  0.00     8
 26 SEP    0 Start Sim        0   0.00   0.0    0  0.0  0.00  0.00  0.00  0.00     8
 27 SEP    1 Germinate        0   0.00   0.0    0  0.0  0.00  0.00  0.00  0.00     9
  1 OCT    5 Emergence       25   0.00   2.1    1  4.4  0.00  0.01  0.00  0.00     1
  9 OCT   13 End Juveni      74   0.16   6.4    2  3.1  0.00  0.00  0.00  0.00     2
 13 OCT   17 Floral Ini     199   0.39   8.3    7  3.7  0.00  0.00  0.00  0.00     3
 10 NOV   45 75% Silkin    5026   2.65  17.5   98  1.9  0.00  0.00  0.00  0.00     4
 18 NOV   53 Beg Gr Fil    6882   2.51  17.5   99  1.4  0.00  0.00  0.00  0.00     5
 24 DEC   89 End Gr Fil   12124   1.10  17.5  138  1.1  0.00  0.00  0.00  0.00     6
 26 DEC   91 Maturity     12124   1.10  17.5  138  1.1  0.00  0.00  0.00  0.00    10

     Conditions not met during defined window for harvesting                       
     between DAY 2013 360 and DAY 2001   1                                         

 27 DEC   92 Harvest      12124   1.10  17.5  138  1.1  0.00  0.00  0.00  0.00    10


*MAIN GROWTH AND DEVELOPMENT VARIABLES

@     VARIABLE                                         SIMULATED     MEASURED
      --------                                         ---------     --------
      Anthesis day (dap)                                      45          -99
      Physiological maturity day (dap)                        91          -99
      Yield at harvest maturity (kg [dm]/ha)                5430          -99
      Number at maturity (no/m2)                            2408          -99
      Unit wt at maturity (g [dm]/unit)                   0.2255          -99
      Number at maturity (no/unit)                         388.3          -99
      Tops weight at maturity (kg [dm]/ha)                 12124          -99
      By-product produced (stalk) at maturity (kg[dm]/ha    6736          -99
      Leaf area index, maximum                              2.79          -99
      Harvest index at maturity                            0.448          -99
      Grain N at maturity (kg/ha)                             95          -99
      Tops N at maturity (kg/ha)                             138          -99
      Stem N at maturity (kg/ha)                              44          -99
      Grain N at maturity (%)                                1.7          -99
      Tops weight at anthesis (kg [dm]/ha)                  4824          -99
      Tops N at anthesis (kg/ha)                              97          -99
      Leaf number per stem at maturity                     17.47          -99
      Emergence day (dap)                                      5          -99


*ENVIRONMENTAL AND STRESS FACTORS

 |-----Development Phase------|--------------------------------------Environment--------------------------------------|-----------------Stress-----------------|
                              |---------------Average--------------|-----Cumulative-----|--------Count of days--------|          (0=Min, 1=Max Stress)         |
                         Time  Temp  Temp  Temp Solar Photop                Evapo    Pot TMIN TMIN TMAX TMAX TMAX RAIN|----Water----|---Nitrogen--|-Phosphorus-|
                         Span   Max   Min  Mean   Rad  [day]    CO2   Rain  Trans     ET   <    <    >    >    >    >   Photo         Photo         Photo
                         days    øC    øC    øC MJ/m2     hr    ppm     mm     mm     mm  0øC  2øC 30øC 32øC 34øC  0mm  synth Growth  synth Growth  synth Growth
----------------------------------------------------------------------------------------------------------------------------------------------------------------
 Emergence-End Juvenile     8  33.5  22.2  27.9  19.1   6.96  396.9    6.2    6.4   44.7    0    0    8    7    3    2  0.000  0.000  0.002  0.006  0.000  0.000
 End Juvenil-Floral Init    4  33.4  22.5  27.9  19.5   3.92  397.0    0.8    6.1   22.5    0    0    4    4    0    1  0.000  0.000  0.001  0.002  0.000  0.000
 Floral Init-End Lf Grow   28  30.9  22.5  26.7  15.7   0.06  397.1  154.8   94.6  113.7    0    0   23    6    2   14  0.000  0.003  0.000  0.000  0.000  0.000
 End Lf Grth-Beg Grn Fil    8  31.9  22.5  27.2  17.2   0.00  397.2   65.2   34.3   34.6    0    0    7    4    1    3  0.000  0.000  0.000  0.000  0.000  0.000
 Grain Filling Phase       36  31.3  22.3  26.8  15.5   0.00  397.4  159.6  134.8  140.5    0    0   26   11    1   21  0.000  0.000  0.000  0.000  0.000  0.000


 Planting to Harvest       92  31.8  22.3  27.0  16.5   1.31  397.2  386.6  290.5  400.7    0    0   76   39   10   41  0.000  0.001  0.000  0.001  0.000  0.000
----------------------------------------------------------------------------------------------------------------------------------------------------------------


*Resource Productivity
 Growing season length:  92 days 

 Precipitation during growing season       386.6 mm[rain]
   Dry Matter Productivity                  3.14 kg[DM]/m3[rain]          =   31.4 kg[DM]/ha per mm[rain]
   Yield Productivity                       1.40 kg[grain yield]/m3[rain] =   14.0 kg[yield]/ha per mm[rain]

 Evapotranspiration during growing season  290.5 mm[ET]
   Dry Matter Productivity                  4.17 kg[DM]/m3[ET]            =   41.7 kg[DM]/ha per mm[ET]
   Yield Productivity                       1.87 kg[grain yield]/m3[ET]   =   18.7 kg[yield]/ha per mm[ET]

 Transpiration during growing season       215.4 mm[EP]
   Dry Matter Productivity                  5.63 kg[DM]/m3[EP]            =   56.3 kg[DM]/ha per mm[EP]
   Yield Productivity                       2.52 kg[grain yield]/m3[EP]   =   25.2 kg[yield]/ha per mm[EP]

 N applied during growing season            163. kg[N applied]/ha
   Dry Matter Productivity                  74.4 kg[DM]/kg[N applied]
   Yield Productivity                       33.3 kg[yield]/kg[N applied]

 N uptake during growing season              151 kg[N uptake]/ha
   Dry Matter Productivity                  80.3 kg[DM]/kg[N uptake]
   Yield Productivity                       36.0 kg[yield]/kg[N uptake]

--------------------------------------------------------------------------------------------------------------

                     Maize YIELD :     5430 kg/ha    [Dry weight] 

**************************************************************************************************************

*DSSAT Cropping System Model Ver. 4.6.1.000 -release      AUG 23, 2017; 14:09:35
                                                                                
*RUN   5        : P5                        MZCER046 2\000002    5              
 MODEL          : MZCER046 - Maize                                              
 EXPERIMENT     : 2\000002 BN Calibracion Cerete 2013                           
 DATA PATH      : C:\L\0\00000                                                  
 TREATMENT  5   : P5                        MZCER046                            
                                                                                
                                                                                
 CROP           : Maize            CULTIVAR : PIO 30F35HRB_    ECOTYPE :IB0001  
 STARTING DATE  : SEP 26 2013                                                   
 PLANTING DATE  : OCT 14 2013        PLANTS/m2 :  6.2     ROW SPACING :  80.cm  
 WEATHER        : CNAT   2013                                                   
 SOIL           : CCESPI2017     TEXTURE : SL    -   Suelo Espinal Calibraci    
 SOIL INITIAL C : DEPTH:100cm EXTR. H2O: 83.6mm  NO3:  1.1kg/ha  NH4: 49.9kg/ha 
 WATER BALANCE  : IRRIGATE ON REPORTED DATE(S)                                  
 IRRIGATION     :        0 mm IN     0 APPLICATIONS                             
 NITROGEN BAL.  : SOIL-N & N-UPTAKE SIMULATION; NO N-FIXATION                   
 N-FERTILIZER   :      163 kg/ha IN     6 APPLICATIONS                          
 RESIDUE/MANURE : INITIAL :     0 kg/ha ;       0 kg/ha IN     0 APPLICATIONS   
 ENVIRONM. OPT. : DAYL=    0.00  SRAD=    0.00  TMAX=    0.00  TMIN=    0.00    
                  RAIN=    0.00  CO2 =    0.00  DEW =    0.00  WIND=    0.00    
 SIMULATION OPT : WATER   :Y  NITROGEN:Y  N-FIX:N  PHOSPH :N  PESTS  :N         
                  PHOTO   :C  ET      :R  INFIL:S  HYDROL :R  SOM    :G         
                  CO2 397ppm  NSWIT   :1  EVAP :S  SOIL   :2  STEMP  :D         
 MANAGEMENT OPT : PLANTING:R  IRRIG   :R  FERT :D  RESIDUE:R  HARVEST:A         
                  WEATHER :M  TILLAGE :N                                        
                                                                                
*SUMMARY OF SOIL AND GENETIC INPUT PARAMETERS                                   
                                                                                
   SOIL LOWER UPPER   SAT  EXTR  INIT   ROOT   BULK     pH    NO3    NH4    ORG 
  DEPTH LIMIT LIMIT    SW    SW    SW   DIST   DENS                          C  
   cm   cm3/cm3    cm3/cm3    cm3/cm3         g/cm3         ugN/g  ugN/g     %  
------------------------------------------------------------------------------- 
  0-  5 0.160 0.252 0.376 0.092 0.252   1.00   1.69   6.60   0.21   3.62   0.45 
  5- 15 0.160 0.252 0.376 0.092 0.252   1.00   1.69   6.60   0.21   3.62   0.45 
 15- 30 0.160 0.252 0.376 0.092 0.252   1.00   1.69   6.60   0.21   3.62   0.45 
 30- 53 0.120 0.200 0.440 0.080 0.200   0.27   1.40   7.10   0.00   3.22   0.17 
 53- 77 0.120 0.200 0.440 0.080 0.200   0.27   1.40   7.10   0.00   3.22   0.17 
 77-100 0.120 0.200 0.440 0.080 0.200   0.27   1.40   7.10   0.00   3.22   0.17 
                                                                                
TOT-100  13.2  21.6  42.1   8.4  21.6  <--cm   -  kg/ha-->    1.1   49.9  39475 
SOIL ALBEDO    : 0.09      EVAPORATION LIMIT : 6.00         MIN. FACTOR  : 1.00 
RUNOFF CURVE # :76.00      DRAINAGE RATE     : 0.60         FERT. FACTOR : 1.00 
                                                                                
 Maize      CULTIVAR :000002-PIO 30F35HRB_      ECOTYPE :IB0001                 
 P1     : 170.00  P2     : 0.3000  P5     : 875.00                              
 G2     : 750.00  G3     :  6.500  PHINT  : 45.000                              


*SIMULATED CROP AND SOIL STATUS AT MAIN DEVELOPMENT STAGES

 RUN NO.     5     P5                      

        CROP GROWTH     BIOMASS         LEAF   CROP N     STRESS      STRESS                                           
   DATE  AGE STAGE        kg/ha    LAI   NUM  kg/ha  %   H2O  Nitr Phos1 Phos2  RSTG                                   
 ------  --- ----------   -----  -----  ----  ---  ---  ----  ----  ----  ----  ----                                   
 26 SEP    0 Start Sim        0   0.00   0.0    0  0.0  0.00  0.00  0.00  0.00     7
 14 OCT    0 Sowing           0   0.00   0.0    0  0.0  0.00  0.00  0.00  0.00     8
 15 OCT    1 Germinate        0   0.00   0.0    0  0.0  0.00  0.00  0.00  0.00     9
 20 OCT    6 Emergence       25   0.00   2.0    1  4.4  0.00  0.01  0.00  0.00     1
 29 OCT   15 End Juveni      76   0.17   6.5    2  3.2  0.00  0.00  0.00  0.00     2
  2 NOV   19 Floral Ini     185   0.37   8.2    7  3.7  0.00  0.01  0.00  0.00     3
 29 NOV   46 75% Silkin    4900   2.65  17.5   98  2.0  0.00  0.00  0.00  0.00     4
  9 DEC   56 Beg Gr Fil    6957   2.49  17.5   98  1.4  0.04  0.00  0.00  0.00     5
 12 JAN   90 End Gr Fil   11273   1.14  17.5  123  1.1  0.12  0.00  0.00  0.00     6
 14 JAN   92 Maturity     11273   1.14  17.5  123  1.1  0.00  0.00  0.00  0.00    10

     Conditions not met during defined window for harvesting                       
     between DAY 2014  14 and DAY 2001   1                                         

 15 JAN   93 Harvest      11273   1.14  17.5  123  1.1  0.00  0.00  0.00  0.00    10


*MAIN GROWTH AND DEVELOPMENT VARIABLES

@     VARIABLE                                         SIMULATED     MEASURED
      --------                                         ---------     --------
      Anthesis day (dap)                                      46          -99
      Physiological maturity day (dap)                        92          -99
      Yield at harvest maturity (kg [dm]/ha)                4460          -99
      Number at maturity (no/m2)                            2213          -99
      Unit wt at maturity (g [dm]/unit)                   0.2015          -99
      Number at maturity (no/unit)                         357.0          -99
      Tops weight at maturity (kg [dm]/ha)                 11273          -99
      By-product produced (stalk) at maturity (kg[dm]/ha    6857          -99
      Leaf area index, maximum                              2.78          -99
      Harvest index at maturity                            0.396          -99
      Grain N at maturity (kg/ha)                             78          -99
      Tops N at maturity (kg/ha)                             123          -99
      Stem N at maturity (kg/ha)                              45          -99
      Grain N at maturity (%)                                1.8          -99
      Tops weight at anthesis (kg [dm]/ha)                  4674          -99
      Tops N at anthesis (kg/ha)                              96          -99
      Leaf number per stem at maturity                     17.51          -99
      Emergence day (dap)                                      6          -99


*ENVIRONMENTAL AND STRESS FACTORS

 |-----Development Phase------|--------------------------------------Environment--------------------------------------|-----------------Stress-----------------|
                              |---------------Average--------------|-----Cumulative-----|--------Count of days--------|          (0=Min, 1=Max Stress)         |
                         Time  Temp  Temp  Temp Solar Photop                Evapo    Pot TMIN TMIN TMAX TMAX TMAX RAIN|----Water----|---Nitrogen--|-Phosphorus-|
                         Span   Max   Min  Mean   Rad  [day]    CO2   Rain  Trans     ET   <    <    >    >    >    >   Photo         Photo         Photo
                         days    øC    øC    øC MJ/m2     hr    ppm     mm     mm     mm  0øC  2øC 30øC 32øC 34øC  0mm  synth Growth  synth Growth  synth Growth
----------------------------------------------------------------------------------------------------------------------------------------------------------------
 Emergence-End Juvenile     9  30.5  22.3  26.4  14.8   0.00  397.1   89.2   37.8   38.5    0    0    6    2    0    7  0.000  0.000  0.002  0.004  0.000  0.000
 End Juvenil-Floral Init    4  30.5  22.6  26.5  15.5   0.00  397.1    4.8   11.8   17.4    0    0    4    0    0    2  0.000  0.000  0.002  0.006  0.000  0.000
 Floral Init-End Lf Grow   27  31.3  22.4  26.9  16.3   0.00  397.2  128.4  106.8  114.2    0    0   22    9    1   13  0.000  0.000  0.000  0.000  0.000  0.000
 End Lf Grth-Beg Grn Fil   10  31.3  22.1  26.7  15.7   0.00  397.3  119.5   38.7   39.0    0    0    8    3    0   10  0.000  0.049  0.000  0.000  0.000  0.000
 Grain Filling Phase       34  31.9  22.2  27.1  16.0   0.00  397.5   87.0  121.6  137.7    0    0   26   15    6   12  0.078  0.123  0.000  0.000  0.000  0.000


 Planting to Harvest       93  31.5  22.3  26.9  15.9   0.00  397.3  428.9  330.6  388.2    0    0   74   33   10   44  0.028  0.050  0.000  0.001  0.000  0.000
----------------------------------------------------------------------------------------------------------------------------------------------------------------


*Resource Productivity
 Growing season length:  93 days 

 Precipitation during growing season       428.9 mm[rain]
   Dry Matter Productivity                  2.63 kg[DM]/m3[rain]          =   26.3 kg[DM]/ha per mm[rain]
   Yield Productivity                       1.04 kg[grain yield]/m3[rain] =   10.4 kg[yield]/ha per mm[rain]

 Evapotranspiration during growing season  330.6 mm[ET]
   Dry Matter Productivity                  3.41 kg[DM]/m3[ET]            =   34.1 kg[DM]/ha per mm[ET]
   Yield Productivity                       1.35 kg[grain yield]/m3[ET]   =   13.5 kg[yield]/ha per mm[ET]

 Transpiration during growing season       209.0 mm[EP]
   Dry Matter Productivity                  5.39 kg[DM]/m3[EP]            =   53.9 kg[DM]/ha per mm[EP]
   Yield Productivity                       2.13 kg[grain yield]/m3[EP]   =   21.3 kg[yield]/ha per mm[EP]

 N applied during growing season            163. kg[N applied]/ha
   Dry Matter Productivity                  69.2 kg[DM]/kg[N applied]
   Yield Productivity                       27.4 kg[yield]/kg[N applied]

 N uptake during growing season              137 kg[N uptake]/ha
   Dry Matter Productivity                  82.3 kg[DM]/kg[N uptake]
   Yield Productivity                       32.6 kg[yield]/kg[N uptake]

--------------------------------------------------------------------------------------------------------------

                     Maize YIELD :     4460 kg/ha    [Dry weight] 

**************************************************************************************************************

*DSSAT Cropping System Model Ver. 4.6.1.000 -release      AUG 23, 2017; 14:09:35
                                                                                
*RUN   6        : P6                        MZCER046 2\000002    6              
 MODEL          : MZCER046 - Maize                                              
 EXPERIMENT     : 2\000002 BN Calibracion Cerete 2013                           
 DATA PATH      : C:\L\0\00000                                                  
 TREATMENT  6   : P6                        MZCER046                            
                                                                                
                                                                                
 CROP           : Maize            CULTIVAR : PIO 30F35HRB_    ECOTYPE :IB0001  
 STARTING DATE  : SEP 26 2013                                                   
 PLANTING DATE  : OCT 24 2013        PLANTS/m2 :  6.2     ROW SPACING :  80.cm  
 WEATHER        : CNAT   2013                                                   
 SOIL           : CCESPI2017     TEXTURE : SL    -   Suelo Espinal Calibraci    
 SOIL INITIAL C : DEPTH:100cm EXTR. H2O: 83.6mm  NO3:  1.1kg/ha  NH4: 49.9kg/ha 
 WATER BALANCE  : IRRIGATE ON REPORTED DATE(S)                                  
 IRRIGATION     :        0 mm IN     0 APPLICATIONS                             
 NITROGEN BAL.  : SOIL-N & N-UPTAKE SIMULATION; NO N-FIXATION                   
 N-FERTILIZER   :      163 kg/ha IN     6 APPLICATIONS                          
 RESIDUE/MANURE : INITIAL :     0 kg/ha ;       0 kg/ha IN     0 APPLICATIONS   
 ENVIRONM. OPT. : DAYL=    0.00  SRAD=    0.00  TMAX=    0.00  TMIN=    0.00    
                  RAIN=    0.00  CO2 =    0.00  DEW =    0.00  WIND=    0.00    
 SIMULATION OPT : WATER   :Y  NITROGEN:Y  N-FIX:N  PHOSPH :N  PESTS  :N         
                  PHOTO   :C  ET      :R  INFIL:S  HYDROL :R  SOM    :G         
                  CO2 397ppm  NSWIT   :1  EVAP :S  SOIL   :2  STEMP  :D         
 MANAGEMENT OPT : PLANTING:R  IRRIG   :R  FERT :D  RESIDUE:R  HARVEST:A         
                  WEATHER :M  TILLAGE :N                                        
                                                                                
*SUMMARY OF SOIL AND GENETIC INPUT PARAMETERS                                   
                                                                                
   SOIL LOWER UPPER   SAT  EXTR  INIT   ROOT   BULK     pH    NO3    NH4    ORG 
  DEPTH LIMIT LIMIT    SW    SW    SW   DIST   DENS                          C  
   cm   cm3/cm3    cm3/cm3    cm3/cm3         g/cm3         ugN/g  ugN/g     %  
------------------------------------------------------------------------------- 
  0-  5 0.160 0.252 0.376 0.092 0.252   1.00   1.69   6.60   0.21   3.62   0.45 
  5- 15 0.160 0.252 0.376 0.092 0.252   1.00   1.69   6.60   0.21   3.62   0.45 
 15- 30 0.160 0.252 0.376 0.092 0.252   1.00   1.69   6.60   0.21   3.62   0.45 
 30- 53 0.120 0.200 0.440 0.080 0.200   0.27   1.40   7.10   0.00   3.22   0.17 
 53- 77 0.120 0.200 0.440 0.080 0.200   0.27   1.40   7.10   0.00   3.22   0.17 
 77-100 0.120 0.200 0.440 0.080 0.200   0.27   1.40   7.10   0.00   3.22   0.17 
                                                                                
TOT-100  13.2  21.6  42.1   8.4  21.6  <--cm   -  kg/ha-->    1.1   49.9  39475 
SOIL ALBEDO    : 0.09      EVAPORATION LIMIT : 6.00         MIN. FACTOR  : 1.00 
RUNOFF CURVE # :76.00      DRAINAGE RATE     : 0.60         FERT. FACTOR : 1.00 
                                                                                
 Maize      CULTIVAR :000002-PIO 30F35HRB_      ECOTYPE :IB0001                 
 P1     : 170.00  P2     : 0.3000  P5     : 875.00                              
 G2     : 750.00  G3     :  6.500  PHINT  : 45.000                              


*SIMULATED CROP AND SOIL STATUS AT MAIN DEVELOPMENT STAGES

 RUN NO.     6     P6                      

        CROP GROWTH     BIOMASS         LEAF   CROP N     STRESS      STRESS                                           
   DATE  AGE STAGE        kg/ha    LAI   NUM  kg/ha  %   H2O  Nitr Phos1 Phos2  RSTG                                   
 ------  --- ----------   -----  -----  ----  ---  ---  ----  ----  ----  ----  ----                                   
 26 SEP    0 Start Sim        0   0.00   0.0    0  0.0  0.00  0.00  0.00  0.00     7
 24 OCT    0 Sowing           0   0.00   0.0    0  0.0  0.00  0.00  0.00  0.00     8
 25 OCT    1 Germinate        0   0.00   0.0    0  0.0  0.00  0.00  0.00  0.00     9
 29 OCT    5 Emergence       25   0.00   2.1    1  4.4  0.00  0.01  0.00  0.00     1
  7 NOV   14 End Juveni      78   0.17   6.5    2  3.2  0.00  0.00  0.00  0.00     2
 11 NOV   18 Floral Ini     192   0.38   8.3    7  3.7  0.00  0.00  0.00  0.00     3
  8 DEC   45 75% Silkin    4783   2.50  17.2   93  1.9  0.06  0.00  0.00  0.00     4
 17 DEC   54 Beg Gr Fil    6578   2.37  17.2   93  1.4  0.00  0.00  0.00  0.00     5
 20 JAN   88 End Gr Fil   10722   1.10  17.2  117  1.1  0.17  0.00  0.00  0.00     6
 23 JAN   91 Maturity     10722   1.10  17.2  117  1.1  0.00  0.00  0.00  0.00    10

     Conditions not met during defined window for harvesting                       
     between DAY 2014  23 and DAY 2001   1                                         

 24 JAN   92 Harvest      10722   1.10  17.2  117  1.1  0.00  0.00  0.00  0.00    10


*MAIN GROWTH AND DEVELOPMENT VARIABLES

@     VARIABLE                                         SIMULATED     MEASURED
      --------                                         ---------     --------
      Anthesis day (dap)                                      45          -99
      Physiological maturity day (dap)                        91          -99
      Yield at harvest maturity (kg [dm]/ha)                4281          -99
      Number at maturity (no/m2)                            2167          -99
      Unit wt at maturity (g [dm]/unit)                   0.1976          -99
      Number at maturity (no/unit)                         349.5          -99
      Tops weight at maturity (kg [dm]/ha)                 10722          -99
      By-product produced (stalk) at maturity (kg[dm]/ha    6483          -99
      Leaf area index, maximum                              2.60          -99
      Harvest index at maturity                            0.399          -99
      Grain N at maturity (kg/ha)                             75          -99
      Tops N at maturity (kg/ha)                             117          -99
      Stem N at maturity (kg/ha)                              42          -99
      Grain N at maturity (%)                                1.8          -99
      Tops weight at anthesis (kg [dm]/ha)                  4566          -99
      Tops N at anthesis (kg/ha)                              92          -99
      Leaf number per stem at maturity                     17.20          -99
      Emergence day (dap)                                      5          -99


*ENVIRONMENTAL AND STRESS FACTORS

 |-----Development Phase------|--------------------------------------Environment--------------------------------------|-----------------Stress-----------------|
                              |---------------Average--------------|-----Cumulative-----|--------Count of days--------|          (0=Min, 1=Max Stress)         |
                         Time  Temp  Temp  Temp Solar Photop                Evapo    Pot TMIN TMIN TMAX TMAX TMAX RAIN|----Water----|---Nitrogen--|-Phosphorus-|
                         Span   Max   Min  Mean   Rad  [day]    CO2   Rain  Trans     ET   <    <    >    >    >    >   Photo         Photo         Photo
                         days    øC    øC    øC MJ/m2     hr    ppm     mm     mm     mm  0øC  2øC 30øC 32øC 34øC  0mm  synth Growth  synth Growth  synth Growth
----------------------------------------------------------------------------------------------------------------------------------------------------------------
 Emergence-End Juvenile     9  30.6  22.8  26.7  15.4   0.00  397.1   51.4   26.1   39.9    0    0    8    1    0    6  0.000  0.000  0.002  0.006  0.000  0.000
 End Juvenil-Floral Init    4  30.8  22.4  26.6  16.3   0.00  397.1   43.6   18.2   18.4    0    0    4    0    0    2  0.000  0.000  0.001  0.001  0.000  0.000
 Floral Init-End Lf Grow   27  31.5  22.3  26.9  16.3   0.00  397.3  152.6  101.0  114.4    0    0   21   11    1   16  0.011  0.063  0.000  0.000  0.000  0.000
 End Lf Grth-Beg Grn Fil    9  31.1  22.3  26.7  15.6   0.00  397.3   36.0   34.8   35.0    0    0    6    2    0    4  0.000  0.000  0.000  0.000  0.000  0.000
 Grain Filling Phase       34  32.2  22.0  27.1  16.2   0.00  397.5   83.0  117.1  140.1    0    0   28   17    9   11  0.114  0.169  0.000  0.000  0.000  0.000


 Planting to Harvest       92  31.7  22.3  27.0  16.2   0.00  397.4  428.7  338.3  391.6    0    0   75   37   11   43  0.045  0.081  0.000  0.001  0.000  0.000
----------------------------------------------------------------------------------------------------------------------------------------------------------------


*Resource Productivity
 Growing season length:  92 days 

 Precipitation during growing season       428.7 mm[rain]
   Dry Matter Productivity                  2.50 kg[DM]/m3[rain]          =   25.0 kg[DM]/ha per mm[rain]
   Yield Productivity                       1.00 kg[grain yield]/m3[rain] =   10.0 kg[yield]/ha per mm[rain]

 Evapotranspiration during growing season  338.3 mm[ET]
   Dry Matter Productivity                  3.17 kg[DM]/m3[ET]            =   31.7 kg[DM]/ha per mm[ET]
   Yield Productivity                       1.27 kg[grain yield]/m3[ET]   =   12.7 kg[yield]/ha per mm[ET]

 Transpiration during growing season       201.1 mm[EP]
   Dry Matter Productivity                  5.33 kg[DM]/m3[EP]            =   53.3 kg[DM]/ha per mm[EP]
   Yield Productivity                       2.13 kg[grain yield]/m3[EP]   =   21.3 kg[yield]/ha per mm[EP]

 N applied during growing season            163. kg[N applied]/ha
   Dry Matter Productivity                  65.8 kg[DM]/kg[N applied]
   Yield Productivity                       26.3 kg[yield]/kg[N applied]

 N uptake during growing season              130 kg[N uptake]/ha
   Dry Matter Productivity                  82.5 kg[DM]/kg[N uptake]
   Yield Productivity                       32.9 kg[yield]/kg[N uptake]

--------------------------------------------------------------------------------------------------------------

                     Maize YIELD :     4281 kg/ha    [Dry weight] 

**************************************************************************************************************

*DSSAT Cropping System Model Ver. 4.6.1.000 -release      AUG 23, 2017; 14:09:36
                                                                                
*RUN   7        : P7                        MZCER046 2\000002    7              
 MODEL          : MZCER046 - Maize                                              
 EXPERIMENT     : 2\000002 BN Calibracion Cerete 2013                           
 DATA PATH      : C:\L\0\00000                                                  
 TREATMENT  7   : P7                        MZCER046                            
                                                                                
                                                                                
 CROP           : Maize            CULTIVAR : PIO 30F35HRB_    ECOTYPE :IB0001  
 STARTING DATE  : APR  8 2014                                                   
 PLANTING DATE  : APR  8 2014        PLANTS/m2 :  6.2     ROW SPACING :  80.cm  
 WEATHER        : CNAT   2014                                                   
 SOIL           : CCESPI2017     TEXTURE : SL    -   Suelo Espinal Calibraci    
 SOIL INITIAL C : DEPTH:100cm EXTR. H2O: 83.6mm  NO3: 38.6kg/ha  NH4: 66.5kg/ha 
 WATER BALANCE  : AUTOMATIC IRRIGATION - REFILL PROFILE                         
 IRRIGATION     : AUTOMATIC - PLANTING -> MATURITY [ SOIL DEPTH: 0.30m 50.%]    
 NITROGEN BAL.  : SOIL-N & N-UPTAKE SIMULATION; NO N-FIXATION                   
 N-FERTILIZER   :      163 kg/ha IN     6 APPLICATIONS                          
 RESIDUE/MANURE : INITIAL :     0 kg/ha ;       0 kg/ha IN     0 APPLICATIONS   
 ENVIRONM. OPT. : DAYL=    0.00  SRAD=    0.00  TMAX=    0.00  TMIN=    0.00    
                  RAIN=    0.00  CO2 =    0.00  DEW =    0.00  WIND=    0.00    
 SIMULATION OPT : WATER   :Y  NITROGEN:Y  N-FIX:N  PHOSPH :N  PESTS  :N         
                  PHOTO   :C  ET      :R  INFIL:S  HYDROL :R  SOM    :G         
                  CO2 398ppm  NSWIT   :1  EVAP :S  SOIL   :2  STEMP  :D         
 MANAGEMENT OPT : PLANTING:R  IRRIG   :A  FERT :D  RESIDUE:R  HARVEST:A         
                  WEATHER :M  TILLAGE :N                                        
                                                                                
*SUMMARY OF SOIL AND GENETIC INPUT PARAMETERS                                   
                                                                                
   SOIL LOWER UPPER   SAT  EXTR  INIT   ROOT   BULK     pH    NO3    NH4    ORG 
  DEPTH LIMIT LIMIT    SW    SW    SW   DIST   DENS                          C  
   cm   cm3/cm3    cm3/cm3    cm3/cm3         g/cm3         ugN/g  ugN/g     %  
------------------------------------------------------------------------------- 
  0-  5 0.160 0.252 0.376 0.092 0.364   1.00   1.69   6.60   3.78   4.42   0.45 
  5- 15 0.160 0.252 0.376 0.092 0.364   1.00   1.69   6.60   3.78   4.42   0.45 
 15- 30 0.160 0.252 0.376 0.092 0.364   1.00   1.69   6.60   3.78   4.42   0.45 
 30- 53 0.120 0.200 0.440 0.080 0.373   0.27   1.40   7.10   1.98   4.50   0.17 
 53- 77 0.120 0.200 0.440 0.080 0.373   0.27   1.40   7.10   1.98   4.50   0.17 
 77-100 0.120 0.200 0.440 0.080 0.373   0.27   1.40   7.10   1.98   4.50   0.17 
                                                                                
TOT-100  13.2  21.6  42.1   8.4  37.0  <--cm   -  kg/ha-->   38.6   66.5  39475 
SOIL ALBEDO    : 0.09      EVAPORATION LIMIT : 6.00         MIN. FACTOR  : 1.00 
RUNOFF CURVE # :76.00      DRAINAGE RATE     : 0.60         FERT. FACTOR : 1.00 
                                                                                
 Maize      CULTIVAR :000002-PIO 30F35HRB_      ECOTYPE :IB0001                 
 P1     : 170.00  P2     : 0.3000  P5     : 875.00                              
 G2     : 750.00  G3     :  6.500  PHINT  : 45.000                              


*SIMULATED CROP AND SOIL STATUS AT MAIN DEVELOPMENT STAGES

 RUN NO.     7     P7                      

        CROP GROWTH     BIOMASS         LEAF   CROP N     STRESS      STRESS                                           
   DATE  AGE STAGE        kg/ha    LAI   NUM  kg/ha  %   H2O  Nitr Phos1 Phos2  RSTG                                   
 ------  --- ----------   -----  -----  ----  ---  ---  ----  ----  ----  ----  ----                                   
  8 APR    0 Sowing           0   0.00   0.0    0  0.0  0.00  0.00  0.00  0.00     8
  8 APR    0 Start Sim        0   0.00   0.0    0  0.0  0.00  0.00  0.00  0.00     8
  9 APR    1 Germinate        0   0.00   0.0    0  0.0  0.00  0.00  0.00  0.00     9
 13 APR    5 Emergence       25   0.00   2.1    1  4.4  0.00  0.01  0.00  0.00     1
 22 APR   14 End Juveni      83   0.18   6.7    3  3.2  0.00  0.00  0.00  0.00     2
 28 APR   20 Floral Ini     298   0.55   9.3   11  3.6  0.00  0.00  0.00  0.00     3
 28 MAY   50 75% Silkin    6279   3.40  19.2  125  2.0  0.00  0.00  0.00  0.00     4
  6 JUN   59 Beg Gr Fil    8352   3.21  19.2  125  1.5  0.00  0.00  0.00  0.00     5
 11 JUL   94 End Gr Fil   13714   1.46  19.2  152  1.1  0.00  0.00  0.00  0.00     6
 13 JUL   96 Maturity     13714   1.46  19.2  152  1.1  0.00  0.00  0.00  0.00    10

     Conditions not met during defined window for harvesting                       
     between DAY 2014 194 and DAY 2001   1                                         

 14 JUL   97 Harvest      13714   1.46  19.2  152  1.1  0.00  0.00  0.00  0.00    10


*MAIN GROWTH AND DEVELOPMENT VARIABLES

@     VARIABLE                                         SIMULATED     MEASURED
      --------                                         ---------     --------
      Anthesis day (dap)                                      50          -99
      Physiological maturity day (dap)                        96          -99
      Yield at harvest maturity (kg [dm]/ha)                5524          -99
      Number at maturity (no/m2)                            2495          -99
      Unit wt at maturity (g [dm]/unit)                   0.2214          -99
      Number at maturity (no/unit)                         402.5          -99
      Tops weight at maturity (kg [dm]/ha)                 13714          -99
      By-product produced (stalk) at maturity (kg[dm]/ha    8246          -99
      Leaf area index, maximum                              3.58          -99
      Harvest index at maturity                            0.403          -99
      Grain N at maturity (kg/ha)                             96          -99
      Tops N at maturity (kg/ha)                             152          -99
      Stem N at maturity (kg/ha)                              55          -99
      Grain N at maturity (%)                                1.7          -99
      Tops weight at anthesis (kg [dm]/ha)                  6022          -99
      Tops N at anthesis (kg/ha)                             123          -99
      Leaf number per stem at maturity                     19.24          -99
      Emergence day (dap)                                      5          -99


*ENVIRONMENTAL AND STRESS FACTORS

 |-----Development Phase------|--------------------------------------Environment--------------------------------------|-----------------Stress-----------------|
                              |---------------Average--------------|-----Cumulative-----|--------Count of days--------|          (0=Min, 1=Max Stress)         |
                         Time  Temp  Temp  Temp Solar Photop                Evapo    Pot TMIN TMIN TMAX TMAX TMAX RAIN|----Water----|---Nitrogen--|-Phosphorus-|
                         Span   Max   Min  Mean   Rad  [day]    CO2   Rain  Trans     ET   <    <    >    >    >    >   Photo         Photo         Photo
                         days    øC    øC    øC MJ/m2     hr    ppm     mm     mm     mm  0øC  2øC 30øC 32øC 34øC  0mm  synth Growth  synth Growth  synth Growth
----------------------------------------------------------------------------------------------------------------------------------------------------------------
 Emergence-End Juvenile     9  31.6  22.8  27.2  16.0  23.65  398.1   31.7   27.0   41.9    0    0    7    4    0    5  0.000  0.000  0.002  0.005  0.000  0.000
 End Juvenil-Floral Init    6  30.8  23.4  27.1  15.5  24.00  398.2    0.0   15.6   26.2    0    0    5    1    0    0  0.000  0.000  0.001  0.003  0.000  0.000
 Floral Init-End Lf Grow   30  30.8  22.6  26.7  15.7  24.00  398.3  127.9  112.6  119.3    0    0   21    9    0   14  0.000  0.000  0.000  0.000  0.000  0.000
 End Lf Grth-Beg Grn Fil    9  31.2  22.9  27.0  16.5  24.00  398.4   89.4   36.4   36.6    0    0    8    3    0    7  0.000  0.000  0.000  0.000  0.000  0.000
 Grain Filling Phase       35  32.1  21.4  26.8  17.3  24.00  398.5   10.5  149.3  151.2    0    0   33   18    5    9  0.000  0.000  0.000  0.000  0.000  0.000


 Planting to Harvest       97  31.5  22.3  26.9  16.3  23.73  398.3  259.5  372.8  409.5    0    0   81   40    5   35  0.000  0.000  0.000  0.001  0.000  0.000
----------------------------------------------------------------------------------------------------------------------------------------------------------------


*Resource Productivity
 Growing season length:  97 days 

 Precipitation during growing season       259.5 mm[rain]
   Dry Matter Productivity                  5.28 kg[DM]/m3[rain]          =   52.8 kg[DM]/ha per mm[rain]
   Yield Productivity                       2.13 kg[grain yield]/m3[rain] =   21.3 kg[yield]/ha per mm[rain]

 Evapotranspiration during growing season  372.8 mm[ET]
   Dry Matter Productivity                  3.68 kg[DM]/m3[ET]            =   36.8 kg[DM]/ha per mm[ET]
   Yield Productivity                       1.48 kg[grain yield]/m3[ET]   =   14.8 kg[yield]/ha per mm[ET]

 Transpiration during growing season       259.1 mm[EP]
   Dry Matter Productivity                  5.29 kg[DM]/m3[EP]            =   52.9 kg[DM]/ha per mm[EP]
   Yield Productivity                       2.13 kg[grain yield]/m3[EP]   =   21.3 kg[yield]/ha per mm[EP]

 Irrigation during growing season          142.5 mm[irrig]
   Dry Matter Productivity                  9.62 kg[DM]/m3[irrig]         =   96.2 kg[DM]/ha per mm[irrig]
   Yield Productivity                       3.88 kg[grain yield]/m3[irrig]=   38.8 kg[yield]/ha per mm[irrig]

 N applied during growing season            163. kg[N applied]/ha
   Dry Matter Productivity                  84.1 kg[DM]/kg[N applied]
   Yield Productivity                       33.9 kg[yield]/kg[N applied]

 N uptake during growing season              171 kg[N uptake]/ha
   Dry Matter Productivity                  80.2 kg[DM]/kg[N uptake]
   Yield Productivity                       32.3 kg[yield]/kg[N uptake]

--------------------------------------------------------------------------------------------------------------

                     Maize YIELD :     5524 kg/ha    [Dry weight] 

**************************************************************************************************************

*DSSAT Cropping System Model Ver. 4.6.1.000 -release      AUG 23, 2017; 14:09:36
                                                                                
*RUN   8        : P8                        MZCER046 2\000002    8              
 MODEL          : MZCER046 - Maize                                              
 EXPERIMENT     : 2\000002 BN Calibracion Cerete 2013                           
 DATA PATH      : C:\L\0\00000                                                  
 TREATMENT  8   : P8                        MZCER046                            
                                                                                
                                                                                
 CROP           : Maize            CULTIVAR : PIO 30F35HRB_    ECOTYPE :IB0001  
 STARTING DATE  : APR  8 2014                                                   
 PLANTING DATE  : APR 23 2014        PLANTS/m2 :  6.2     ROW SPACING :  80.cm  
 WEATHER        : CNAT   2014                                                   
 SOIL           : CCESPI2017     TEXTURE : SL    -   Suelo Espinal Calibraci    
 SOIL INITIAL C : DEPTH:100cm EXTR. H2O: 83.6mm  NO3: 38.6kg/ha  NH4: 66.5kg/ha 
 WATER BALANCE  : AUTOMATIC IRRIGATION - REFILL PROFILE                         
 IRRIGATION     : AUTOMATIC - PLANTING -> MATURITY [ SOIL DEPTH: 0.30m 50.%]    
 NITROGEN BAL.  : SOIL-N & N-UPTAKE SIMULATION; NO N-FIXATION                   
 N-FERTILIZER   :      163 kg/ha IN     6 APPLICATIONS                          
 RESIDUE/MANURE : INITIAL :     0 kg/ha ;       0 kg/ha IN     0 APPLICATIONS   
 ENVIRONM. OPT. : DAYL=    0.00  SRAD=    0.00  TMAX=    0.00  TMIN=    0.00    
                  RAIN=    0.00  CO2 =    0.00  DEW =    0.00  WIND=    0.00    
 SIMULATION OPT : WATER   :Y  NITROGEN:Y  N-FIX:N  PHOSPH :N  PESTS  :N         
                  PHOTO   :C  ET      :R  INFIL:S  HYDROL :R  SOM    :G         
                  CO2 398ppm  NSWIT   :1  EVAP :S  SOIL   :2  STEMP  :D         
 MANAGEMENT OPT : PLANTING:R  IRRIG   :A  FERT :D  RESIDUE:R  HARVEST:A         
                  WEATHER :M  TILLAGE :N                                        
                                                                                
*SUMMARY OF SOIL AND GENETIC INPUT PARAMETERS                                   
                                                                                
   SOIL LOWER UPPER   SAT  EXTR  INIT   ROOT   BULK     pH    NO3    NH4    ORG 
  DEPTH LIMIT LIMIT    SW    SW    SW   DIST   DENS                          C  
   cm   cm3/cm3    cm3/cm3    cm3/cm3         g/cm3         ugN/g  ugN/g     %  
------------------------------------------------------------------------------- 
  0-  5 0.160 0.252 0.376 0.092 0.364   1.00   1.69   6.60   3.78   4.42   0.45 
  5- 15 0.160 0.252 0.376 0.092 0.364   1.00   1.69   6.60   3.78   4.42   0.45 
 15- 30 0.160 0.252 0.376 0.092 0.364   1.00   1.69   6.60   3.78   4.42   0.45 
 30- 53 0.120 0.200 0.440 0.080 0.373   0.27   1.40   7.10   1.98   4.50   0.17 
 53- 77 0.120 0.200 0.440 0.080 0.373   0.27   1.40   7.10   1.98   4.50   0.17 
 77-100 0.120 0.200 0.440 0.080 0.373   0.27   1.40   7.10   1.98   4.50   0.17 
                                                                                
TOT-100  13.2  21.6  42.1   8.4  37.0  <--cm   -  kg/ha-->   38.6   66.5  39475 
SOIL ALBEDO    : 0.09      EVAPORATION LIMIT : 6.00         MIN. FACTOR  : 1.00 
RUNOFF CURVE # :76.00      DRAINAGE RATE     : 0.60         FERT. FACTOR : 1.00 
                                                                                
 Maize      CULTIVAR :000002-PIO 30F35HRB_      ECOTYPE :IB0001                 
 P1     : 170.00  P2     : 0.3000  P5     : 875.00                              
 G2     : 750.00  G3     :  6.500  PHINT  : 45.000                              


*SIMULATED CROP AND SOIL STATUS AT MAIN DEVELOPMENT STAGES

 RUN NO.     8     P8                      

        CROP GROWTH     BIOMASS         LEAF   CROP N     STRESS      STRESS                                           
   DATE  AGE STAGE        kg/ha    LAI   NUM  kg/ha  %   H2O  Nitr Phos1 Phos2  RSTG                                   
 ------  --- ----------   -----  -----  ----  ---  ---  ----  ----  ----  ----  ----                                   
  8 APR    0 Start Sim        0   0.00   0.0    0  0.0  0.00  0.00  0.00  0.00     7
 23 APR    0 Sowing           0   0.00   0.0    0  0.0  0.00  0.00  0.00  0.00     8
 24 APR    1 Germinate        0   0.00   0.0    0  0.0  0.00  0.00  0.00  0.00     9
 28 APR    5 Emergence       25   0.00   2.1    1  4.4  0.00  0.01  0.00  0.00     1
  7 MAY   14 End Juveni      78   0.17   6.5    2  3.1  0.00  0.00  0.00  0.00     2
 14 MAY   21 Floral Ini     337   0.61   9.5   12  3.6  0.00  0.00  0.00  0.00     3
 13 JUN   51 75% Silkin    6625   3.55  19.6  131  2.0  0.00  0.00  0.00  0.00     4
 22 JUN   60 Beg Gr Fil    8922   3.35  19.6  131  1.5  0.00  0.00  0.00  0.00     5
 27 JUL   95 End Gr Fil   14582   1.48  19.6  160  1.1  0.00  0.00  0.00  0.00     6
 29 JUL   97 Maturity     14582   1.48  19.6  160  1.1  0.00  0.00  0.00  0.00    10

     Conditions not met during defined window for harvesting                       
     between DAY 2014 210 and DAY 2001   1                                         

 30 JUL   98 Harvest      14582   1.48  19.6  160  1.1  0.00  0.00  0.00  0.00    10


*MAIN GROWTH AND DEVELOPMENT VARIABLES

@     VARIABLE                                         SIMULATED     MEASURED
      --------                                         ---------     --------
      Anthesis day (dap)                                      51          -99
      Physiological maturity day (dap)                        97          -99
      Yield at harvest maturity (kg [dm]/ha)                5812          -99
      Number at maturity (no/m2)                            2716          -99
      Unit wt at maturity (g [dm]/unit)                   0.2140          -99
      Number at maturity (no/unit)                         438.1          -99
      Tops weight at maturity (kg [dm]/ha)                 14582          -99
      By-product produced (stalk) at maturity (kg[dm]/ha    8828          -99
      Leaf area index, maximum                              3.73          -99
      Harvest index at maturity                            0.399          -99
      Grain N at maturity (kg/ha)                            102          -99
      Tops N at maturity (kg/ha)                             160          -99
      Stem N at maturity (kg/ha)                              58          -99
      Grain N at maturity (%)                                1.7          -99
      Tops weight at anthesis (kg [dm]/ha)                  6355          -99
      Tops N at anthesis (kg/ha)                             131          -99
      Leaf number per stem at maturity                     19.58          -99
      Emergence day (dap)                                      5          -99


*ENVIRONMENTAL AND STRESS FACTORS

 |-----Development Phase------|--------------------------------------Environment--------------------------------------|-----------------Stress-----------------|
                              |---------------Average--------------|-----Cumulative-----|--------Count of days--------|          (0=Min, 1=Max Stress)         |
                         Time  Temp  Temp  Temp Solar Photop                Evapo    Pot TMIN TMIN TMAX TMAX TMAX RAIN|----Water----|---Nitrogen--|-Phosphorus-|
                         Span   Max   Min  Mean   Rad  [day]    CO2   Rain  Trans     ET   <    <    >    >    >    >   Photo         Photo         Photo
                         days    øC    øC    øC MJ/m2     hr    ppm     mm     mm     mm  0øC  2øC 30øC 32øC 34øC  0mm  synth Growth  synth Growth  synth Growth
----------------------------------------------------------------------------------------------------------------------------------------------------------------
 Emergence-End Juvenile     9  30.1  22.9  26.5  14.3  24.00  398.2   10.0    7.9   36.5    0    0    6    1    0    4  0.000  0.000  0.003  0.007  0.000  0.000
 End Juvenil-Floral Init    7  31.4  22.8  27.1  17.1  24.00  398.2    9.8   12.4   33.8    0    0    6    3    0    2  0.000  0.000  0.000  0.001  0.000  0.000
 Floral Init-End Lf Grow   30  31.2  22.4  26.8  16.3  24.00  398.3  205.1  119.1  124.0    0    0   24   10    0   17  0.000  0.000  0.000  0.000  0.000  0.000
 End Lf Grth-Beg Grn Fil    9  31.9  20.7  26.3  17.9  24.00  398.5    0.0   39.1   39.3    0    0    9    5    1    0  0.000  0.000  0.000  0.000  0.000  0.000
 Grain Filling Phase       35  32.9  21.5  27.2  18.0  24.00  398.6    2.9  155.5  158.9    0    0   32   25   11    7  0.000  0.000  0.000  0.000  0.000  0.000


 Planting to Harvest       98  31.9  22.0  26.9  17.0  24.00  398.4  227.8  356.0  430.7    0    0   84   48   14   30  0.000  0.000  0.000  0.001  0.000  0.000
----------------------------------------------------------------------------------------------------------------------------------------------------------------


*Resource Productivity
 Growing season length:  98 days 

 Precipitation during growing season       227.8 mm[rain]
   Dry Matter Productivity                  6.40 kg[DM]/m3[rain]          =   64.0 kg[DM]/ha per mm[rain]
   Yield Productivity                       2.55 kg[grain yield]/m3[rain] =   25.5 kg[yield]/ha per mm[rain]

 Evapotranspiration during growing season  356.0 mm[ET]
   Dry Matter Productivity                  4.10 kg[DM]/m3[ET]            =   41.0 kg[DM]/ha per mm[ET]
   Yield Productivity                       1.63 kg[grain yield]/m3[ET]   =   16.3 kg[yield]/ha per mm[ET]

 Transpiration during growing season       278.3 mm[EP]
   Dry Matter Productivity                  5.24 kg[DM]/m3[EP]            =   52.4 kg[DM]/ha per mm[EP]
   Yield Productivity                       2.09 kg[grain yield]/m3[EP]   =   20.9 kg[yield]/ha per mm[EP]

 Irrigation during growing season          182.9 mm[irrig]
   Dry Matter Productivity                  7.97 kg[DM]/m3[irrig]         =   79.7 kg[DM]/ha per mm[irrig]
   Yield Productivity                       3.18 kg[grain yield]/m3[irrig]=   31.8 kg[yield]/ha per mm[irrig]

 N applied during growing season            163. kg[N applied]/ha
   Dry Matter Productivity                  89.5 kg[DM]/kg[N applied]
   Yield Productivity                       35.7 kg[yield]/kg[N applied]

 N uptake during growing season              181 kg[N uptake]/ha
   Dry Matter Productivity                  80.6 kg[DM]/kg[N uptake]
   Yield Productivity                       32.1 kg[yield]/kg[N uptake]

--------------------------------------------------------------------------------------------------------------

                     Maize YIELD :     5812 kg/ha    [Dry weight] 

**************************************************************************************************************

*DSSAT Cropping System Model Ver. 4.6.1.000 -release      AUG 23, 2017; 14:09:36
                                                                                
*RUN   9        : P9                        MZCER046 2\000002    9              
 MODEL          : MZCER046 - Maize                                              
 EXPERIMENT     : 2\000002 BN Calibracion Cerete 2013                           
 DATA PATH      : C:\L\0\00000                                                  
 TREATMENT  9   : P9                        MZCER046                            
                                                                                
                                                                                
 CROP           : Maize            CULTIVAR : PIO 30F35HRB_    ECOTYPE :IB0001  
 STARTING DATE  : APR  8 2014                                                   
 PLANTING DATE  : MAY  8 2014        PLANTS/m2 :  6.2     ROW SPACING :  80.cm  
 WEATHER        : CNAT   2014                                                   
 SOIL           : CCESPI2017     TEXTURE : SL    -   Suelo Espinal Calibraci    
 SOIL INITIAL C : DEPTH:100cm EXTR. H2O: 83.6mm  NO3: 38.6kg/ha  NH4: 66.5kg/ha 
 WATER BALANCE  : AUTOMATIC IRRIGATION - REFILL PROFILE                         
 IRRIGATION     : AUTOMATIC - PLANTING -> MATURITY [ SOIL DEPTH: 0.30m 50.%]    
 NITROGEN BAL.  : SOIL-N & N-UPTAKE SIMULATION; NO N-FIXATION                   
 N-FERTILIZER   :      163 kg/ha IN     6 APPLICATIONS                          
 RESIDUE/MANURE : INITIAL :     0 kg/ha ;       0 kg/ha IN     0 APPLICATIONS   
 ENVIRONM. OPT. : DAYL=    0.00  SRAD=    0.00  TMAX=    0.00  TMIN=    0.00    
                  RAIN=    0.00  CO2 =    0.00  DEW =    0.00  WIND=    0.00    
 SIMULATION OPT : WATER   :Y  NITROGEN:Y  N-FIX:N  PHOSPH :N  PESTS  :N         
                  PHOTO   :C  ET      :R  INFIL:S  HYDROL :R  SOM    :G         
                  CO2 398ppm  NSWIT   :1  EVAP :S  SOIL   :2  STEMP  :D         
 MANAGEMENT OPT : PLANTING:R  IRRIG   :A  FERT :D  RESIDUE:R  HARVEST:A         
                  WEATHER :M  TILLAGE :N                                        
                                                                                
*SUMMARY OF SOIL AND GENETIC INPUT PARAMETERS                                   
                                                                                
   SOIL LOWER UPPER   SAT  EXTR  INIT   ROOT   BULK     pH    NO3    NH4    ORG 
  DEPTH LIMIT LIMIT    SW    SW    SW   DIST   DENS                          C  
   cm   cm3/cm3    cm3/cm3    cm3/cm3         g/cm3         ugN/g  ugN/g     %  
------------------------------------------------------------------------------- 
  0-  5 0.160 0.252 0.376 0.092 0.364   1.00   1.69   6.60   3.78   4.42   0.45 
  5- 15 0.160 0.252 0.376 0.092 0.364   1.00   1.69   6.60   3.78   4.42   0.45 
 15- 30 0.160 0.252 0.376 0.092 0.364   1.00   1.69   6.60   3.78   4.42   0.45 
 30- 53 0.120 0.200 0.440 0.080 0.373   0.27   1.40   7.10   1.98   4.50   0.17 
 53- 77 0.120 0.200 0.440 0.080 0.373   0.27   1.40   7.10   1.98   4.50   0.17 
 77-100 0.120 0.200 0.440 0.080 0.373   0.27   1.40   7.10   1.98   4.50   0.17 
                                                                                
TOT-100  13.2  21.6  42.1   8.4  37.0  <--cm   -  kg/ha-->   38.6   66.5  39475 
SOIL ALBEDO    : 0.09      EVAPORATION LIMIT : 6.00         MIN. FACTOR  : 1.00 
RUNOFF CURVE # :76.00      DRAINAGE RATE     : 0.60         FERT. FACTOR : 1.00 
                                                                                
 Maize      CULTIVAR :000002-PIO 30F35HRB_      ECOTYPE :IB0001                 
 P1     : 170.00  P2     : 0.3000  P5     : 875.00                              
 G2     : 750.00  G3     :  6.500  PHINT  : 45.000                              


*SIMULATED CROP AND SOIL STATUS AT MAIN DEVELOPMENT STAGES

 RUN NO.     9     P9                      

        CROP GROWTH     BIOMASS         LEAF   CROP N     STRESS      STRESS                                           
   DATE  AGE STAGE        kg/ha    LAI   NUM  kg/ha  %   H2O  Nitr Phos1 Phos2  RSTG                                   
 ------  --- ----------   -----  -----  ----  ---  ---  ----  ----  ----  ----  ----                                   
  8 APR    0 Start Sim        0   0.00   0.0    0  0.0  0.00  0.00  0.00  0.00     7
  8 MAY    0 Sowing           0   0.00   0.0    0  0.0  0.00  0.00  0.00  0.00     8
  9 MAY    1 Germinate        0   0.00   0.0    0  0.0  0.00  0.00  0.00  0.00     9
 13 MAY    5 Emergence       25   0.00   2.1    1  4.4  0.00  0.01  0.00  0.00     1
 22 MAY   14 End Juveni      76   0.17   6.5    2  3.2  0.00  0.00  0.00  0.00     2
 29 MAY   21 Floral Ini     321   0.58   9.5   12  3.6  0.00  0.00  0.00  0.00     3
 28 JUN   51 75% Silkin    7096   3.68  19.6  139  2.0  0.00  0.00  0.00  0.00     4
  7 JUL   60 Beg Gr Fil    9353   3.47  19.6  139  1.5  0.00  0.00  0.00  0.00     5
 10 AUG   94 End Gr Fil   14764   1.57  19.6  160  1.1  0.00  0.00  0.00  0.00     6
 12 AUG   96 Maturity     14764   1.57  19.6  160  1.1  0.00  0.00  0.00  0.00    10

     Conditions not met during defined window for harvesting                       
     between DAY 2014 224 and DAY 2001   1                                         

 13 AUG   97 Harvest      14764   1.57  19.6  160  1.1  0.00  0.00  0.00  0.00    10


*MAIN GROWTH AND DEVELOPMENT VARIABLES

@     VARIABLE                                         SIMULATED     MEASURED
      --------                                         ---------     --------
      Anthesis day (dap)                                      51          -99
      Physiological maturity day (dap)                        96          -99
      Yield at harvest maturity (kg [dm]/ha)                5569          -99
      Number at maturity (no/m2)                            2730          -99
      Unit wt at maturity (g [dm]/unit)                   0.2040          -99
      Number at maturity (no/unit)                         440.3          -99
      Tops weight at maturity (kg [dm]/ha)                 14764          -99
      By-product produced (stalk) at maturity (kg[dm]/ha    9256          -99
      Leaf area index, maximum                              3.87          -99
      Harvest index at maturity                            0.377          -99
      Grain N at maturity (kg/ha)                             98          -99
      Tops N at maturity (kg/ha)                             160          -99
      Stem N at maturity (kg/ha)                              62          -99
      Grain N at maturity (%)                                1.8          -99
      Tops weight at anthesis (kg [dm]/ha)                  6781          -99
      Tops N at anthesis (kg/ha)                             138          -99
      Leaf number per stem at maturity                     19.60          -99
      Emergence day (dap)                                      5          -99


*ENVIRONMENTAL AND STRESS FACTORS

 |-----Development Phase------|--------------------------------------Environment--------------------------------------|-----------------Stress-----------------|
                              |---------------Average--------------|-----Cumulative-----|--------Count of days--------|          (0=Min, 1=Max Stress)         |
                         Time  Temp  Temp  Temp Solar Photop                Evapo    Pot TMIN TMIN TMAX TMAX TMAX RAIN|----Water----|---Nitrogen--|-Phosphorus-|
                         Span   Max   Min  Mean   Rad  [day]    CO2   Rain  Trans     ET   <    <    >    >    >    >   Photo         Photo         Photo
                         days    øC    øC    øC MJ/m2     hr    ppm     mm     mm     mm  0øC  2øC 30øC 32øC 34øC  0mm  synth Growth  synth Growth  synth Growth
----------------------------------------------------------------------------------------------------------------------------------------------------------------
 Emergence-End Juvenile     9  30.6  22.6  26.6  15.1  24.00  398.3   40.0   24.0   39.2    0    0    5    2    0    5  0.000  0.000  0.002  0.006  0.000  0.000
 End Juvenil-Floral Init    7  31.4  21.7  26.5  17.0  24.00  398.4   74.1   33.3   33.5    0    0    6    3    0    5  0.000  0.000  0.000  0.001  0.000  0.000
 Floral Init-End Lf Grow   30  31.7  21.8  26.8  17.2  24.00  398.4   98.6  127.7  130.7    0    0   29   12    2   11  0.000  0.000  0.000  0.000  0.000  0.000
 End Lf Grth-Beg Grn Fil    9  32.2  21.5  26.9  17.8  24.00  398.5    0.4   39.3   39.6    0    0    7    6    2    2  0.000  0.000  0.000  0.000  0.000  0.000
 Grain Filling Phase       34  33.5  21.3  27.4  18.4  24.00  398.7    0.9  156.5  158.4    0    0   32   30   15    3  0.000  0.003  0.000  0.000  0.000  0.000


 Planting to Harvest       97  32.3  21.8  27.0  17.5  24.00  398.5  219.0  399.7  441.9    0    0   86   58   22   28  0.000  0.001  0.000  0.001  0.000  0.000
----------------------------------------------------------------------------------------------------------------------------------------------------------------


*Resource Productivity
 Growing season length:  97 days 

 Precipitation during growing season       219.0 mm[rain]
   Dry Matter Productivity                  6.74 kg[DM]/m3[rain]          =   67.4 kg[DM]/ha per mm[rain]
   Yield Productivity                       2.54 kg[grain yield]/m3[rain] =   25.4 kg[yield]/ha per mm[rain]

 Evapotranspiration during growing season  399.7 mm[ET]
   Dry Matter Productivity                  3.69 kg[DM]/m3[ET]            =   36.9 kg[DM]/ha per mm[ET]
   Yield Productivity                       1.39 kg[grain yield]/m3[ET]   =   13.9 kg[yield]/ha per mm[ET]

 Transpiration during growing season       285.7 mm[EP]
   Dry Matter Productivity                  5.17 kg[DM]/m3[EP]            =   51.7 kg[DM]/ha per mm[EP]
   Yield Productivity                       1.95 kg[grain yield]/m3[EP]   =   19.5 kg[yield]/ha per mm[EP]

 Irrigation during growing season          247.8 mm[irrig]
   Dry Matter Productivity                  5.96 kg[DM]/m3[irrig]         =   59.6 kg[DM]/ha per mm[irrig]
   Yield Productivity                       2.25 kg[grain yield]/m3[irrig]=   22.5 kg[yield]/ha per mm[irrig]

 N applied during growing season            163. kg[N applied]/ha
   Dry Matter Productivity                  90.6 kg[DM]/kg[N applied]
   Yield Productivity                       34.2 kg[yield]/kg[N applied]

 N uptake during growing season              182 kg[N uptake]/ha
   Dry Matter Productivity                  81.1 kg[DM]/kg[N uptake]
   Yield Productivity                       30.6 kg[yield]/kg[N uptake]

--------------------------------------------------------------------------------------------------------------

                     Maize YIELD :     5569 kg/ha    [Dry weight] 

**************************************************************************************************************
