*GROWTH ASPECTS OUTPUT FILE

*DSSAT Cropping System Model Ver. 4.6.1.000 -release      MAY 05, 2017; 11:09:11
                                                                                
*RUN   1        : P1                        MZCER046 2\000002    1              
 MODEL          : MZCER046 - Maize                                              
 EXPERIMENT     : 2\000002 BN Calibracion Cerete 2013                           
 DATA PATH      : C:\L\0\00000                                                  
 TREATMENT  1   : P1                        MZCER046                            
  
!                                                                                                                                                                                                                                      Root Dens. (cm/cm3) by soil depth (cm):
!                                                                                                                                                                                                                                      0-5    5-15   15-26   26-51   51-75  75-100
@YEAR DOY   DAS   DAP   L#SD   GSTD   LAID   LWAD   SWAD   GWAD   RWAD   VWAD   CWAD   G#AD   GWGD   HIAD   PWAD   P#AD   WSPD   WSGD   NSTD   EWSD  PST1A  PST2A   KSTD   LN%D   SH%D   HIPD   PWDD   PWTD     SLAD   CHTD   CWID   RDPD    RL1D    RL2D    RL3D    RL4D    RL5D    RL6D   CDAD   LDAD   SDAD   SNW0C   SNW1C  DTTD
 2013 127    16     0    0.0      0   0.00      0      0      0      0      0      0      0    0.0  0.000      0      0  0.000  0.000  0.000  0.000  0.000  0.000  0.000   0.00   0.00   0.00      0      0      0.0   0.00   0.00   0.05    0.00    0.00    0.00    0.00    0.00    0.00      0      0      0       0       0 20.20
 2013 128    17     1    0.0      0   0.00      0      0      0      0      0      0      0    0.0  0.000      0      0  0.000  0.000  0.000  0.000  0.000  0.000  0.000   0.00   0.00   0.00      0      0      0.0   0.00   0.00   0.08    0.00    0.00    0.00    0.00    0.00    0.00      0      0      0       0       0 21.03
 2013 129    18     2    0.0      0   0.00      0      0      0      0      0      0      0    0.0  0.000      0      0  0.000  0.000  0.000  0.000  0.000  0.000  0.000   0.00   0.00   0.00      0      0      0.0   0.00   0.00   0.11    0.00    0.00    0.00    0.00    0.00    0.00      0      0      0       0       0 21.12
 2013 130    19     3    0.0      0   0.00      0      0      0      0      0      0      0    0.0  0.000      0      0  0.000  0.000  0.000  0.000  0.000  0.000  0.000   0.00   0.00   0.00      0      0      0.0   0.00   0.00   0.14    0.00    0.00    0.00    0.00    0.00    0.00      0      0      0       0       0 20.06
 2013 131    20     4    0.0      0   0.00      0      0      0      0      0      0      0    0.0  0.000      0      0  0.000  0.000  0.000  0.000  0.000  0.000  0.000   0.00   0.00   0.00      0      0      0.0   0.00   0.00   0.18    0.00    0.00    0.00    0.00    0.00    0.00      0      0      0       0       0 21.63
 2013 132    21     5    2.0      1   0.00     12     12      0     12     25     25      0    0.0  0.000      0      0  0.000  0.000  0.012  0.000  0.000  0.000  0.000   4.40   0.00   0.00      0      0     40.0   0.00   0.00   0.20    0.25    0.12    0.03    0.00    0.00    0.00      0      0      0       0       0 22.42
 2013 133    22     6    2.0      1   0.01     12     12      0     13     25     25      0    0.0  0.000      0      0  0.000  0.000  0.006  0.000  0.000  0.000  0.000   4.40   0.00   0.00      0      0     80.2   0.01   0.00   0.22    0.25    0.13    0.03    0.00    0.00    0.00      0      0      0       0       0 21.34
 2013 134    23     7    3.0      1   0.02     12     12      0     14     25     25      0    0.0  0.000      0      0  0.000  0.000  0.000  0.000  0.000  0.000  0.000   4.40   0.00   0.00      0      0    126.5   0.01   0.00   0.24    0.25    0.13    0.03    0.00    0.00    0.00      0      0      0       0       0 21.40
 2013 135    24     8    4.0      1   0.04     12     12      0     15     25     25      0    0.0  0.000      0      0  0.000  0.000  0.000  0.000  0.000  0.000  0.000   4.40   0.00   0.00      0      0    289.2   0.02   0.00   0.26    0.27    0.14    0.04    0.00    0.00    0.00      0      0      0       0       0 21.46
 2013 136    25     9    4.0      1   0.06     19     12      0     16     32     32      0    0.0  0.000      0      0  0.000  0.000  0.000  0.000  0.000  0.000  0.000   3.46   0.00   0.00      0      0    314.4   0.03   0.00   0.28    0.27    0.15    0.05    0.00    0.00    0.00      0      0      0       0       0 21.53
 2013 137    26    10    5.0      1   0.09     31     12      0     17     44     44      0    0.0  0.000      0      0  0.000  0.000  0.000  0.000  0.000  0.000  0.000   2.96   0.00   0.00      0      0    284.2   0.05   0.00   0.29    0.28    0.16    0.05    0.00    0.00    0.00      0      0      0       0       0 21.45
 2013 138    27    11    5.0      1   0.12     46     12      0     19     58     58      0    0.0  0.000      0      0  0.000  0.000  0.000  0.000  0.000  0.000  0.000   3.05   0.00   0.00      0      0    263.2   0.06   0.00   0.30    0.30    0.17    0.07    0.00    0.00    0.00      0      0      0       0       0 20.02
 2013 139    28    12    6.0      1   0.16     64     12      0     22     76     76      0    0.0  0.000      0      0  0.000  0.000  0.000  0.000  0.000  0.000  0.000   3.03   0.00   0.00      0      0    245.9   0.08   0.00   0.31    0.31    0.19    0.08    0.00    0.00    0.00      0      0      0       0       0 20.64
 2013 140    29    13    6.0      1   0.18     77     12      0     24     89     89      0    0.0  0.000      0      0  0.000  0.000  0.000  0.426  0.000  0.000  0.000   3.34   0.00   0.00      0      0    236.7   0.10   0.00   0.33    0.33    0.21    0.10    0.00    0.00    0.00      0      0      0       0       0 21.09
 2013 141    30    14    7.0      2   0.21     86     12      0     31     98     98      0    0.0  0.000      0      0  0.000  0.000  0.000  0.453  0.000  0.000  0.000   3.46   0.00   0.00      0      0    246.7   0.11   0.00   0.35    0.38    0.26    0.15    0.01    0.00    0.00      0      0      0       0       0 20.90
 2013 142    31    15    7.0      2   0.24     98     12      0     37    111    111      0    0.0  0.000      0      0  0.000  0.000  0.010  0.623  0.000  0.000  0.000   3.46   0.00   0.00      0      0    239.8   0.13   0.00   0.38    0.43    0.30    0.18    0.01    0.00    0.00      0      0      0       0       1 20.67
 2013 143    32    16    8.0      2   0.27    116     12      0     48    129    129      0    0.0  0.000      0      0  0.000  0.158  0.000  0.517  0.000  0.000  0.000   3.31   0.00   0.00      0      0    231.4   0.15   0.00   0.40    0.50    0.38    0.25    0.02    0.00    0.00      0      0      0       0       1 20.17
 2013 144    33    17    8.0      2   0.32    145     12      0     53    158    158      0    0.0  0.000      0      0  0.000  0.000  0.000  0.247  0.000  0.000  0.000   3.10   0.00   0.00      0      0    221.0   0.17   0.00   0.43    0.54    0.41    0.28    0.03    0.00    0.00      0      0      0       0       1 20.61
 2013 145    34    18    9.0      2   0.40    194     12      0     64    206    206      0    0.0  0.000      0      0  0.000  0.000  0.000  0.061  0.000  0.000  0.000   3.78   0.00   0.00      0      0    208.3   0.22   0.00   0.45    0.61    0.48    0.34    0.04    0.00    0.00      0      0      0       0       1 20.34
 2013 146    35    19    9.0      2   0.51    257     12      0     82    270    270      0    0.0  0.000      0      0  0.000  0.000  0.000  0.000  0.000  0.000  0.000   3.74   0.00   0.00      0      0    196.4   0.27   0.00   0.48    0.74    0.60    0.44    0.06    0.00    0.00      0      0      0       0       2 21.30
 2013 147    36    20   10.0      2   0.60    318     12      0     93    330    330      0    0.0  0.000      0      0  0.000  0.000  0.000  0.000  0.000  0.000  0.000   3.69   0.00   0.00      0      0    187.9   0.32   0.00   0.50    0.81    0.66    0.49    0.08    0.00    0.00      0      0      0       0       2 20.21
 2013 148    37    21   10.0      3   0.70    390     13      0    122    403    403      0    0.0  0.000      0      0  0.000  0.000  0.000  0.066  0.000  0.000  0.000   3.61   0.00   0.00      0      0    179.7   0.38   0.00   0.52    1.00    0.85    0.65    0.13    0.00    0.00      0      0      0       0       3 19.88
 2013 149    38    22   11.0      3   0.81    465     14      0    125    479    479      0    0.0  0.000      0      0  0.000  0.000  0.000  0.032  0.000  0.000  0.000   3.54   0.00   0.00      0      0    174.2   0.44   0.00   0.55    1.02    0.87    0.66    0.13    0.00    0.00      0      0      0       0       3 20.14
 2013 150    39    23   11.0      3   0.94    559     17      0    167    576    576      0    0.0  0.000      0      0  0.000  0.000  0.000  0.052  0.000  0.000  0.000   3.48   0.00   0.00      0      0    168.5   0.51   0.00   0.57    1.29    1.12    0.87    0.20    0.02    0.00      0      0      0       0       4 20.00
 2013 151    40    24   12.0      3   1.04    633     22      0    171    655    655      0    0.0  0.000      0      0  0.000  0.000  0.000  0.125  0.000  0.000  0.000   3.42   0.00   0.00      0      0    164.7   0.56   0.00   0.60    1.32    1.14    0.89    0.20    0.02    0.00      0      0      0       0       5 20.05
 2013 152    41    25   12.0      3   1.21    762     36      0    206    797    797      0    0.0  0.000      0      0  0.000  0.000  0.000  0.011  0.000  0.000  0.000   3.36   0.00   0.00      0      0    159.1   0.65   0.00   0.62    1.54    1.35    1.05    0.25    0.04    0.00      0      0      0       0       5 19.90
 2013 153    42    26   13.0      3   1.38    898     56      0    246    954    954      0    0.0  0.000      0      0  0.000  0.000  0.000  0.015  0.000  0.000  0.000   3.31   0.00   0.00      0      0    154.3   0.75   0.00   0.65    1.79    1.59    1.23    0.31    0.07    0.00      0      0      0       0       6 20.30
 2013 154    43    27   13.0      3   1.55   1032     83      0    303   1114   1114      0    0.0  0.000      0      0  0.000  0.000  0.000  0.000  0.000  0.000  0.000   3.25   0.00   0.00      0      0    150.3   0.83   0.00   0.67    2.15    1.93    1.49    0.39    0.12    0.00      0      0      0       0       8 19.10
 2013 155    44    28   14.0      3   1.72   1171    119      0    333   1290   1290      0    0.0  0.000      0      0  0.000  0.000  0.000  0.000  0.000  0.000  0.000   3.20   0.00   0.00      0      0    146.7   0.93   0.00   0.69    2.31    2.08    1.63    0.44    0.15    0.00      0      0      0       0       9 19.30
 2013 156    45    29   14.0      3   1.89   1321    169      0    375   1490   1490      0    0.0  0.000      0      0  0.000  0.000  0.000  0.000  0.000  0.000  0.000   3.15   0.00   0.00      0      0    143.3   1.02   0.00   0.72    2.54    2.30    1.83    0.51    0.20    0.00      0      0      0       0      11 20.30
 2013 157    46    30   15.0      3   2.00   1416    208      0    442   1624   1624      0    0.0  0.000      0      0  0.000  0.000  0.000  0.353  0.000  0.000  0.000   3.10   0.00   0.00      0      0    141.4   1.08   0.00   0.74    2.91    2.64    2.14    0.61    0.28    0.00      0      0      0       0      13 19.50
 2013 158    47    31   15.0      3   2.16   1554    276      0    468   1829   1829      0    0.0  0.000      0      0  0.000  0.000  0.000  0.121  0.000  0.000  0.000   3.05   0.00   0.00      0      0    138.9   1.16   0.00   0.77    3.05    2.77    2.26    0.65    0.31    0.00      0      0      0       0      15 20.30
 2013 159    48    32   15.0      3   2.25   1637    325      0    473   1962   1962      0    0.0  0.000      0      0  0.000  0.000  0.000  0.380  0.000  0.000  0.000   2.99   0.00   0.00      0      0    137.5   1.21   0.00   0.79    3.07    2.79    2.28    0.65    0.32    0.00      0      0      0       0      17 20.45
 2013 160    49    33   16.0      3   2.37   1748    403      0    503   2150   2150      0    0.0  0.000      0      0  0.000  0.000  0.000  0.344  0.000  0.000  0.000   2.94   0.00   0.00      0      0    135.8   1.28   0.00   0.82    3.22    2.93    2.41    0.69    0.35    0.01      0      0      0       0      20 21.35
 2013 161    50    34   16.0      3   2.47   1836    475      0    509   2310   2310      0    0.0  0.000      0      0  0.000  0.000  0.000  0.257  0.000  0.000  0.000   2.89   0.00   0.00      0      0    134.5   1.33   0.00   0.84    3.26    2.96    2.43    0.70    0.36    0.01      0      0      0       0      22 19.70
 2013 162    51    35   17.0      3   2.59   1945    577      0    518   2522   2522      0    0.0  0.000      0      0  0.000  0.000  0.000  0.181  0.000  0.000  0.000   2.84   0.00   0.00      0      0    133.0   1.39   0.00   0.87    3.30    3.00    2.47    0.72    0.37    0.02      0      0      0       0      25 20.90
 2013 163    52    36   17.0      3   2.73   2076    718      0    531   2794   2794      0    0.0  0.000      0      0  0.000  0.000  0.000  0.061  0.000  0.000  0.000   2.80   0.00   0.00      0      0    131.4   1.47   0.00   0.89    3.36    3.06    2.52    0.73    0.38    0.03      0      0      0       0      27 19.90
 2013 164    53    37   18.0      3   2.92   2262    798      0    543   3060   3060      0    0.0  0.000      0      0  0.000  0.000  0.000  0.000  0.000  0.000  0.000   2.75   0.00   0.00      0      0    129.2   1.57   0.00   0.92    3.42    3.11    2.56    0.75    0.40    0.04      0      0      0       0      30 20.30
 2013 165    54    38   18.0      3   3.01   2344    896      0    551   3240   3242      0    0.0  0.000      1      0  0.000  0.000  0.000  0.000  0.000  0.000  0.000   2.70   0.00   0.00      0      1    128.3   1.60   0.00   0.94    3.46    3.14    2.59    0.76    0.41    0.05      0      0      0       0      33 20.80
 2013 166    55    39   19.0      3   3.11   2443   1055      0    562   3497   3503      0    0.0  0.000      6      0  0.000  0.000  0.000  0.000  0.000  0.000  0.000   2.66   0.00   0.00      0      6    127.3   1.60   0.00   0.96    3.52    3.20    2.63    0.77    0.42    0.06      0      0      0       0      35 19.90
 2013 167    56    40   19.0      3   3.23   2559   1274      0    579   3833   3851      0    0.0  0.000     18      0  0.000  0.000  0.000  0.000  0.000  0.000  0.000   2.62   0.00   0.00      0     18    126.1   1.60   0.00   0.99    3.59    3.27    2.68    0.79    0.44    0.08      0      0      0       0      38 20.05
 2013 168    57    41   20.0      3   3.30   2634   1433      0    589   4067   4093      0    0.0  0.000     26      0  0.000  0.000  0.000  0.000  0.000  0.000  0.000   2.57   0.00   0.01      0     26    125.4   1.60   0.00   1.00    3.64    3.31    2.72    0.81    0.45    0.10      0      0      0       0      41 20.95
 2013 169    58    42   20.0      3   3.41   2737   1663      0    607   4401   4456      0    0.0  0.000     56      0  0.000  0.000  0.000  0.000  0.000  0.000  0.000   2.54   0.00   0.01      0     56    124.5   1.60   0.00   1.00    3.73    3.38    2.77    0.83    0.47    0.12      0      0      0       0      44 20.75
 2013 170    59    43   21.0      3   3.50   2826   1864      0    622   4690   4784      0    0.0  0.000     94      0  0.000  0.000  0.000  0.000  0.000  0.000  0.000   2.50   0.00   0.02      0     94    123.7   1.60   0.00   1.00    3.80    3.44    2.82    0.85    0.49    0.14      0      0      0       0      47 18.60
 2013 171    60    44   21.0      3   3.53   2866   1969      0    628   4835   4940      0    0.0  0.000    105      0  0.000  0.000  0.000  0.000  0.000  0.000  0.000   2.45   0.00   0.02      0    105    123.4   1.60   0.00   1.00    3.83    3.46    2.83    0.85    0.50    0.15      0      0      0       0      50 20.40
 2013 172    61    45   22.0      3   3.60   2934   2124      0    640   5058   5220      0    0.0  0.000    162      0  0.000  0.104  0.000  0.000  0.000  0.000  0.000   2.43   0.00   0.03      0    162    122.8   1.60   0.00   1.00    3.89    3.51    2.87    0.87    0.51    0.17      0      0      0       0      53 20.10
 2013 173    62    46   22.0      3   3.61   2983   2185      0    693   5168   5419      0    0.0  0.000    252      0  0.212  0.475  0.000  0.000  0.000  0.000  0.000   2.43   0.00   0.05      0    252    121.1   1.60   0.00   1.00    4.00    3.72    3.02    0.94    0.57    0.25      0      0      0       0      57 20.90
 2013 174    63    47   22.0      3   3.66   3036   2277      0    702   5313   5635      0    0.0  0.000    323      0  0.000  0.297  0.000  0.000  0.000  0.000  0.000   2.36   0.00   0.06      0    323    120.7   1.60   0.00   1.00    4.00    3.76    3.04    0.95    0.59    0.26      0      0      0       0      57 21.10
 2013 175    64    48   22.0      3   3.71   3084   2370      0    709   5455   5833      0    0.0  0.000    378      0  0.000  0.000  0.000  0.000  0.000  0.000  0.000   2.30   0.00   0.06      0    378    120.3   1.60   0.00   1.00    4.00    3.79    3.06    0.96    0.60    0.27      0      0      0       0      57 19.10
 2013 176    65    49   22.0      3   3.75   3126   2450      0    715   5576   6002      0    0.0  0.000    426      0  0.000  0.000  0.000  0.000  0.000  0.000  0.000   2.27   0.00   0.07      0    426    120.0   1.60   0.00   1.00    4.00    3.81    3.07    0.97    0.60    0.28      0      0      0       0      60 19.00
 2013 177    66    50   22.0      4   3.61   3093   2594      0    729   5687   6369      0    0.0  0.000    682      0  0.000  0.000  0.000  0.000  0.000  0.000  0.000   2.32   0.00   0.11      0    682    116.8   1.60   0.00   1.00    4.00    3.87    3.11    0.99    0.62    0.31      0      0      0       0      64 20.25
 2013 178    67    51   22.0      4   3.59   3056   2672      0    737   5728   6601      0    0.0  0.000    873      0  0.000  0.000  0.000  0.000  0.000  0.000  0.000   2.30   0.00   0.13      0    873    117.5   1.60   0.00   1.00    4.00    3.90    3.14    1.00    0.63    0.32      0      0      0       0      64 21.63
 2013 179    68    52   22.0      4   3.57   3017   2727      0    743   5744   6784      0    0.0  0.000   1041      0  0.000  0.000  0.000  0.000  0.000  0.000  0.000   2.30   0.00   0.15      0   1041    118.5   1.60   0.00   1.00    4.00    3.91    3.16    1.01    0.64    0.33      0      0      0       0      64 18.55
 2013 180    69    53   22.0      4   3.56   2974   2824      0    753   5798   7062      0    0.0  0.000   1265      0  0.000  0.000  0.000  0.115  0.000  0.000  0.000   2.28   0.00   0.18      0   1265    119.6   1.60   0.00   1.00    4.00    3.95    3.20    1.02    0.65    0.35      0      0      0       0      64 18.60
 2013 181    70    54   22.0      4   3.54   2928   2892      0    763   5820   7339      0    0.0  0.000   1519      0  0.000  0.000  0.000  0.034  0.000  0.000  0.000   2.27   0.00   0.21      0   1519    120.8   1.60   0.00   1.00    4.00    3.98    3.24    1.04    0.66    0.37      0      0      0       0      64 19.60
 2013 182    71    55   22.0      4   3.52   2879   2970      0    771   5849   7545      0    0.0  0.000   1696      0  0.000  0.000  0.000  0.173  0.000  0.000  0.000   2.26   0.00   0.22      0   1696    122.1   1.60   0.00   1.00    3.99    4.00    3.28    1.05    0.67    0.38      0      0      0       0      64 21.25
 2013 183    72    56   22.0      4   3.50   2827   3060      0    782   5887   7840      0    0.0  0.000   1953      0  0.000  0.000  0.000  0.130  0.000  0.000  0.000   2.24   0.00   0.25      0   1953    123.7   1.60   0.00   1.00    4.00    4.00    3.31    1.07    0.69    0.40      0      0      0       0      64 20.20
 2013 184    73    57   22.0      4   3.48   2772   3143      0    796   5914   8198      0    0.0  0.000   2283      0  0.000  0.000  0.000  0.071  0.000  0.000  0.000   2.23   0.00   0.28      0   2283    125.5   1.60   0.00   1.00    4.00    4.00    3.36    1.09    0.70    0.42      0      0      0       0      64 20.55
 2013 185    74    58   22.0      5   3.41   2772   3143    142    843   5914   8339   2927    4.8  0.017   2425      6  0.000  0.000  0.000  0.023  0.000  0.000  0.000   2.19   5.84   0.29      0   2425    123.1   1.60   0.00   1.00    4.00    4.00    3.53    1.15    0.76    0.48      0      0      0       0      64 20.55
 2013 186    75    59   22.0      5   3.40   2772   3143    312    895   5914   8509   2927   10.7  0.037   2595      6  0.000  0.000  0.000  0.000  0.000  0.000  0.000   2.14  12.01   0.30      0   2595    122.8   1.60   0.00   1.00    4.00    4.00    3.71    1.22    0.81    0.55      0      0      0       0      64 19.25
 2013 187    76    60   22.0      5   3.40   2772   3143    461    964   5914   8659   2927   15.8  0.053   2744      6  0.000  0.000  0.000  0.000  0.000  0.000  0.000   2.09  16.80   0.32      0   2744    122.5   1.60   0.00   1.00    4.00    4.00    3.95    1.32    0.89    0.63      0      0      0       0      64 20.20
 2013 188    77    61   22.0      5   3.38   2772   3143    598    989   5914   8796   2927   20.4  0.068   2881      6  0.000  0.000  0.000  0.000  0.000  0.000  0.000   2.05  20.76   0.33      0   2881    122.1   1.60   0.00   1.00    4.00    4.00    4.00    1.35    0.92    0.67      0      0      0       0      64 20.75
 2013 189    78    62   22.0      5   3.37   2772   3143    737   1034   5914   8934   2927   25.2  0.082   3020      6  0.000  0.000  0.000  0.000  0.000  0.000  0.000   2.01  24.39   0.34      0   3020    121.6   1.60   0.00   1.00    4.00    4.00    4.00    1.41    0.97    0.72      0      0      0       0      64 20.70
 2013 190    79    63   22.0      5   3.36   2772   3143    876   1098   5914   9074   2927   29.9  0.097   3159      6  0.000  0.000  0.000  0.000  0.000  0.000  0.000   1.97  27.73   0.35      0   3159    121.1   1.60   0.00   1.00    4.00    4.00    4.00    1.49    1.04    0.80      0      0      0       0      64 20.65
 2013 191    80    64   22.0      5   3.34   2772   3143   1047   1147   5914   9245   2927   35.8  0.113   3330      6  0.000  0.000  0.000  0.000  0.000  0.000  0.000   1.92  31.44   0.36      0   3330    120.5   1.60   0.00   1.00    4.00    4.00    4.00    1.54    1.09    0.85      0      0      0       0      64 19.20
 2013 192    81    65   22.0      5   3.32   2772   3143   1216   1165   5914   9414   2927   41.6  0.129   3499      6  0.000  0.000  0.000  0.025  0.000  0.000  0.000   1.87  34.76   0.37      0   3499    119.7   1.60   0.00   1.00    4.00    4.00    4.00    1.56    1.10    0.87      0      0      0       0      64 19.30
 2013 193    82    66   22.0      5   3.30   2772   3143   1389   1225   5914   9586   2927   47.4  0.145   3672      6  0.000  0.000  0.000  0.000  0.000  0.000  0.000   1.82  37.82   0.38      0   3672    119.0   1.60   0.00   1.00    4.00    4.00    4.00    1.63    1.16    0.94      0      0      0       0      64 19.15
 2013 194    83    67   22.0      5   3.27   2772   3143   1540   1279   5914   9738   2927   52.6  0.158   3823      6  0.000  0.000  0.000  0.000  0.000  0.000  0.000   1.77  40.28   0.39      0   3823    118.0   1.60   0.00   1.00    4.00    4.00    4.00    1.70    1.22    1.00      0      0      0       0      64 20.10
 2013 195    84    68   22.0      5   3.24   2772   3143   1699   1337   5914   9897   2927   58.1  0.172   3982      6  0.000  0.000  0.000  0.000  0.000  0.000  0.000   1.72  42.67   0.40      0   3982    117.0   1.60   0.00   1.00    4.00    4.00    4.00    1.76    1.28    1.07      0      0      0       0      64 19.75
 2013 196    85    69   22.0      5   3.21   2772   3143   1842   1363   5914  10040   2927   62.9  0.183   4125      6  0.000  0.000  0.000  0.000  0.000  0.000  0.000   1.68  44.65   0.41      0   4125    115.8   1.60   0.00   1.00    4.00    4.00    4.00    1.79    1.31    1.10      0      0      0       0      64 20.50
 2013 197    86    70   22.0      5   3.17   2772   3143   1979   1410   5914  10177   2927   67.6  0.194   4262      6  0.000  0.000  0.000  0.000  0.000  0.000  0.000   1.51  46.43   0.42      0   4262    114.5   1.60   0.00   1.00    4.00    4.00    4.00    1.85    1.35    1.15      0      0      0       0      71 20.75
 2013 198    87    71   22.0      5   3.13   2772   3143   2146   1434   5914  10344   2927   73.3  0.207   4429      6  0.000  0.000  0.000  0.000  0.000  0.000  0.000   1.48  48.45   0.43      0   4429    113.1   1.60   0.00   1.00    4.00    4.00    4.00    1.88    1.38    1.18      0      0      0       0      78 19.40
 2013 199    88    72   22.0      5   3.09   2772   3143   2305   1454   5914  10503   2927   78.8  0.219   4588      6  0.000  0.000  0.000  0.028  0.000  0.000  0.000   1.45  50.24   0.44      0   4588    111.6   1.60   0.00   1.00    4.00    4.00    4.00    1.90    1.40    1.20      0      0      0       0      85 19.75
 2013 200    89    73   22.0      5   3.05   2772   3143   2481   1499   5914  10678   2927   84.8  0.232   4764      6  0.000  0.000  0.000  0.000  0.000  0.000  0.000   1.43  52.07   0.45      0   4764    109.9   1.60   0.00   1.00    4.00    4.00    4.00    1.95    1.44    1.25      0      0      0       0      92 18.90
 2013 201    90    74   22.0      5   2.99   2772   3143   2621   1542   5914  10819   2927   89.6  0.242   4905      6  0.000  0.000  0.000  0.000  0.000  0.000  0.000   1.40  53.45   0.45      0   4905    108.0   1.60   0.00   1.00    4.00    4.00    4.00    2.00    1.48    1.30      0      0      0       0     100 20.60
 2013 202    91    75   22.0      5   2.94   2772   3143   2779   1593   5914  10977   2927   94.9  0.253   5063      6  0.000  0.000  0.000  0.000  0.000  0.000  0.000   1.37  54.90   0.46      0   5063    106.1   1.60   0.00   1.00    4.00    4.00    4.00    2.06    1.53    1.35      0      0      0       0     107 19.80
 2013 203    92    76   22.0      5   2.88   2772   3143   2935   1618   5914  11133   2927  100.3  0.264   5218      6  0.000  0.000  0.000  0.000  0.000  0.000  0.000   1.33  56.25   0.47      0   5218    103.9   1.60   0.00   1.00    4.00    4.00    4.00    2.08    1.56    1.38      0      0      0       0     115 19.90
 2013 204    93    77   22.0      5   2.81   2772   3143   3065   1667   5914  11262   2927  104.7  0.272   5348      6  0.000  0.000  0.000  0.000  0.000  0.000  0.000   1.31  57.31   0.47      0   5348    101.4   1.60   0.00   1.00    4.00    4.00    4.00    2.14    1.61    1.43      0      0      0       0     123 21.10
 2013 205    94    78   22.0      5   2.74   2772   3143   3191   1723   5914  11389   2927  109.0  0.280   5474      6  0.000  0.235  0.000  0.000  0.000  0.000  0.000   1.28  58.29   0.48      0   5474     98.7   1.60   0.00   1.00    4.00    4.00    4.00    2.20    1.66    1.49      0      0      0       0     132 21.25
 2013 206    95    79   22.0      5   2.66   2772   3143   3315   1758   5914  11513   2927  113.3  0.288   5599      6  0.086  0.391  0.000  0.000  0.000  0.000  0.000   1.25  59.22   0.49      0   5599     95.9   1.60   0.00   1.00    4.00    4.00    4.00    2.24    1.70    1.53      0      0      0       0     140 21.05
 2013 207    96    80   22.0      5   2.58   2772   3143   3464   1783   5914  11661   2927  118.3  0.297   5747      6  0.000  0.000  0.000  0.000  0.000  0.000  0.000   1.22  60.27   0.49      0   5747     92.9   1.60   0.00   1.00    4.00    4.00    4.00    2.27    1.72    1.56      0      0      0       0     149 20.25
 2013 208    97    81   22.0      5   2.49   2772   3143   3639   1783   5914  11837   2927  124.3  0.307   5922      6  0.000  0.000  0.000  0.077  0.000  0.000  0.000   1.19  61.45   0.50      0   5922     90.0   1.60   0.00   1.00    4.00    4.00    4.00    2.27    1.72    1.56      0      0      0       0     158 18.65
 2013 209    98    82   22.0      5   2.40   2772   3143   3766   1832   5914  11963   2927  128.6  0.315   6049      6  0.000  0.000  0.000  0.123  0.000  0.000  0.000   1.18  62.25   0.51      0   6049     86.5   1.60   0.00   1.00    4.00    4.00    4.00    2.32    1.77    1.61      0      0      0       0     167 21.25
 2013 210    99    83   22.0      5   2.30   2772   3143   3929   1858   5914  12127   2927  134.2  0.324   6212      6  0.000  0.000  0.000  0.160  0.000  0.000  0.000   1.15  63.25   0.51      0   6212     83.0   1.60   0.00   1.00    4.00    4.00    4.00    2.35    1.79    1.64      0      0      0       0     176 19.55
 2013 211   100    84   22.0      5   2.20   2772   3143   4104   1870   5914  12301   2927  140.2  0.334   6387      6  0.000  0.000  0.000  0.127  0.000  0.000  0.000   1.13  64.25   0.52      0   6387     79.5   1.60   0.00   1.00    4.00    4.00    4.00    2.37    1.81    1.65      0      0      0       0     185 19.05
 2013 212   101    85   22.0      5   2.09   2772   3143   4254   1888   5914  12452   2927  145.3  0.342   6537      6  0.000  0.000  0.000  0.094  0.000  0.000  0.000   1.10  65.07   0.53      0   6537     75.5   1.60   0.00   1.00    4.00    4.00    4.00    2.39    1.83    1.67      0      0      0       0     195 20.15
 2013 213   102    86   22.0      5   1.97   2772   3143   4385   1896   5914  12582   2927  149.8  0.348   6668      6  0.000  0.000  0.000  0.131  0.000  0.000  0.000   1.07  65.76   0.53      0   6668     71.0   1.60   0.00   1.00    4.00    4.00    4.00    2.39    1.83    1.68      0      0      0       0     204 21.05
 2013 214   103    87   22.0      5   1.85   2772   3143   4543   1911   5914  12740   2927  155.2  0.357   6826      6  0.000  0.000  0.000  0.038  0.000  0.000  0.000   1.06  66.55   0.54      0   6826     66.7   1.60   0.00   1.00    4.00    4.00    4.00    2.41    1.85    1.70      0      0      0       0     214 19.80
 2013 215   104    88   22.0      5   1.71   2772   3143   4677   1954   5914  12874   2927  159.8  0.363   6960      6  0.000  0.000  0.000  0.029  0.000  0.000  0.000   1.04  67.20   0.54      0   6960     61.8   1.60   0.00   1.00    4.00    4.00    4.00    2.46    1.89    1.75      0      0      0       0     223 20.90
 2013 216   105    89   22.0      5   1.58   2772   3143   4842   1961   5914  13040   2927  165.4  0.371   7126      6  0.000  0.000  0.000  0.000  0.000  0.000  0.000   1.01  67.96   0.55      0   7126     57.0   1.60   0.00   1.00    4.00    4.00    4.00    2.47    1.89    1.76      0      0      0       0     233 19.45
 2013 217   106    90   22.0      5   1.58   2772   3143   4842   1961   5914  13040   2927  165.4  0.371   7126      6  0.000  0.000  0.000  0.000  0.000  0.000  0.000   1.01  67.96   0.55      0   7126     57.0   1.60   0.00   1.00    4.00    4.00    4.00    2.47    1.90    1.76      0      0      0       0     233 19.05
 2013 218   107    91   22.0      5   1.58   2772   3143   4842   1961   5914  13040   2927  165.4  0.371   7126      6  0.000  0.000  0.000  0.000  0.000  0.000  0.000   1.01  67.96   0.55      0   7126     57.0   1.60   0.00   1.00    4.00    4.00    4.00    2.48    1.91    1.77      0      0      0       0     233 20.60
 2013 219   108    92   22.0      5   1.58   2772   3143   4842   1961   5914  13040   2927  165.4  0.371   7126      6  0.000  0.000  0.000  0.000  0.000  0.000  0.000   1.01  67.96   0.55      0   7126     57.0   1.60   0.00   1.00    4.00    4.00    4.00    2.49    1.92    1.78      0      0      0       0     233  0.00

*DSSAT Cropping System Model Ver. 4.6.1.000 -release      MAY 05, 2017; 11:09:12
                                                                                
*RUN   2        : P2                        MZCER046 2\000002    2              
 MODEL          : MZCER046 - Maize                                              
 EXPERIMENT     : 2\000002 BN Calibracion Cerete 2013                           
 DATA PATH      : C:\L\0\00000                                                  
 TREATMENT  2   : P2                        MZCER046                            
  
!                                                                                                                                                                                                                                      Root Dens. (cm/cm3) by soil depth (cm):
!                                                                                                                                                                                                                                      0-5    5-15   15-26   26-51   51-75  75-100
@YEAR DOY   DAS   DAP   L#SD   GSTD   LAID   LWAD   SWAD   GWAD   RWAD   VWAD   CWAD   G#AD   GWGD   HIAD   PWAD   P#AD   WSPD   WSGD   NSTD   EWSD  PST1A  PST2A   KSTD   LN%D   SH%D   HIPD   PWDD   PWTD     SLAD   CHTD   CWID   RDPD    RL1D    RL2D    RL3D    RL4D    RL5D    RL6D   CDAD   LDAD   SDAD   SNW0C   SNW1C  DTTD
 2013 141    16     0    0.0      0   0.00      0      0      0      0      0      0      0    0.0  0.000      0      0  0.000  0.000  0.000  0.000  0.000  0.000  0.000   0.00   0.00   0.00      0      0      0.0   0.00   0.00   0.05    0.00    0.00    0.00    0.00    0.00    0.00      0      0      0       0       0 20.90
 2013 142    17     1    0.0      0   0.00      0      0      0      0      0      0      0    0.0  0.000      0      0  0.000  0.000  0.000  0.000  0.000  0.000  0.000   0.00   0.00   0.00      0      0      0.0   0.00   0.00   0.08    0.00    0.00    0.00    0.00    0.00    0.00      0      0      0       0       0 20.67
 2013 143    18     2    0.0      0   0.00      0      0      0      0      0      0      0    0.0  0.000      0      0  0.000  0.000  0.000  0.000  0.000  0.000  0.000   0.00   0.00   0.00      0      0      0.0   0.00   0.00   0.11    0.00    0.00    0.00    0.00    0.00    0.00      0      0      0       0       0 20.17
 2013 144    19     3    0.0      0   0.00      0      0      0      0      0      0      0    0.0  0.000      0      0  0.000  0.000  0.000  0.000  0.000  0.000  0.000   0.00   0.00   0.00      0      0      0.0   0.00   0.00   0.14    0.00    0.00    0.00    0.00    0.00    0.00      0      0      0       0       0 20.61
 2013 145    20     4    0.0      0   0.00      0      0      0      0      0      0      0    0.0  0.000      0      0  0.000  0.000  0.000  0.000  0.000  0.000  0.000   0.00   0.00   0.00      0      0      0.0   0.00   0.00   0.17    0.00    0.00    0.00    0.00    0.00    0.00      0      0      0       0       0 20.34
 2013 146    21     5    2.0      1   0.00     12     12      0     12     25     25      0    0.0  0.000      0      0  0.000  0.000  0.012  0.000  0.000  0.000  0.000   4.40   0.00   0.00      0      0     37.7   0.00   0.00   0.19    0.25    0.12    0.02    0.00    0.00    0.00      0      0      0       0       0 21.30
 2013 147    22     6    2.0      1   0.01     12     12      0     13     25     25      0    0.0  0.000      0      0  0.000  0.000  0.008  0.000  0.000  0.000  0.000   4.40   0.00   0.00      0      0     75.0   0.01   0.00   0.21    0.25    0.13    0.03    0.00    0.00    0.00      0      0      0       0       0 20.21
 2013 148    23     7    3.0      1   0.01     12     12      0     14     25     25      0    0.0  0.000      0      0  0.000  0.000  0.000  0.000  0.000  0.000  0.000   4.40   0.00   0.00      0      0    116.9   0.01   0.00   0.23    0.26    0.14    0.03    0.00    0.00    0.00      0      0      0       0       0 19.88
 2013 149    24     8    4.0      1   0.03     12     12      0     15     25     25      0    0.0  0.000      0      0  0.000  0.000  0.000  0.000  0.000  0.000  0.000   4.40   0.00   0.00      0      0    260.5   0.02   0.00   0.25    0.27    0.14    0.04    0.00    0.00    0.00      0      0      0       0       0 20.14
 2013 150    25     9    4.0      1   0.05     17     12      0     17     29     29      0    0.0  0.000      0      0  0.000  0.000  0.000  0.000  0.000  0.000  0.000   3.72   0.00   0.00      0      0    322.5   0.03   0.00   0.27    0.29    0.16    0.05    0.00    0.00    0.00      0      0      0       0       0 20.77
 2013 151    26    10    5.0      1   0.08     28     12      0     18     40     40      0    0.0  0.000      0      0  0.000  0.000  0.000  0.000  0.000  0.000  0.000   3.04   0.00   0.00      0      0    291.9   0.04   0.00   0.29    0.29    0.16    0.06    0.00    0.00    0.00      0      0      0       0       0 20.26
 2013 152    27    11    5.0      1   0.11     42     12      0     22     54     54      0    0.0  0.000      0      0  0.000  0.000  0.000  0.000  0.000  0.000  0.000   3.02   0.00   0.00      0      0    268.5   0.06   0.00   0.30    0.32    0.19    0.08    0.00    0.00    0.00      0      0      0       0       0 20.81
 2013 153    28    12    6.0      1   0.15     59     12      0     28     71     71      0    0.0  0.000      0      0  0.000  0.000  0.000  0.000  0.000  0.000  0.000   3.03   0.00   0.00      0      0    250.0   0.08   0.00   0.31    0.37    0.24    0.12    0.00    0.00    0.00      0      0      0       0       0 20.96
 2013 154    29    13    6.0      1   0.19     79     12      0     38     91     91      0    0.0  0.000      0      0  0.000  0.000  0.000  0.000  0.000  0.000  0.000   3.07   0.00   0.00      0      0    235.4   0.10   0.00   0.32    0.46    0.32    0.18    0.01    0.00    0.00      0      0      0       0       0 19.97
 2013 155    30    14    7.0      2   0.22     92     12      0     53    104    104      0    0.0  0.000      0      0  0.000  0.000  0.000  0.261  0.000  0.000  0.000   3.38   0.00   0.00      0      0    243.7   0.12   0.00   0.34    0.56    0.42    0.27    0.01    0.00    0.00      0      0      0       0       1 19.94
 2013 156    31    15    7.0      2   0.28    121     12      0     66    133    133      0    0.0  0.000      0      0  0.000  0.000  0.005  0.133  0.000  0.000  0.000   3.05   0.00   0.00      0      0    230.3   0.15   0.00   0.36    0.65    0.51    0.36    0.03    0.00    0.00      0      0      0       0       1 21.19
 2013 157    32    16    8.0      2   0.31    141     12      0     86    153    153      0    0.0  0.000      0      0  0.000  0.000  0.000  0.455  0.000  0.000  0.000   3.34   0.00   0.00      0      0    222.9   0.17   0.00   0.39    0.79    0.64    0.49    0.05    0.00    0.00      0      0      0       0       1 20.12
 2013 158    33    17    8.0      2   0.38    177     12      0     99    190    190      0    0.0  0.000      0      0  0.000  0.000  0.000  0.186  0.000  0.000  0.000   3.06   0.00   0.00      0      0    212.5   0.20   0.00   0.41    0.88    0.73    0.56    0.06    0.00    0.00      0      0      0       0       2 20.80
 2013 159    34    18    9.0      2   0.43    207     12      0    103    219    219      0    0.0  0.000      0      0  0.000  0.000  0.000  0.329  0.000  0.000  0.000   3.78   0.00   0.00      0      0    205.7   0.23   0.00   0.44    0.91    0.75    0.59    0.07    0.00    0.00      0      0      0       0       2 20.61
 2013 160    35    19    9.0      2   0.50    255     12      0    116    267    267      0    0.0  0.000      0      0  0.000  0.000  0.000  0.237  0.000  0.000  0.000   3.74   0.00   0.00      0      0    196.8   0.27   0.00   0.46    0.99    0.83    0.67    0.09    0.00    0.00      0      0      0       0       3 21.84
 2013 161    36    20   10.0      2   0.57    298     12      0    123    311    311      0    0.0  0.000      0      0  0.000  0.000  0.000  0.158  0.000  0.000  0.000   3.69   0.00   0.00      0      0    190.4   0.31   0.00   0.49    1.03    0.88    0.70    0.10    0.00    0.00      0      0      0       0       3 19.97
 2013 162    37    21   10.0      3   0.68    372     13      0    130    385    385      0    0.0  0.000      0      0  0.000  0.000  0.000  0.073  0.000  0.000  0.000   3.61   0.00   0.00      0      0    181.6   0.36   0.00   0.51    1.08    0.92    0.74    0.11    0.00    0.00      0      0      0       0       4 21.32
 2013 163    38    22   11.0      3   0.80    460     14      0    149    475    475      0    0.0  0.000      0      0  0.000  0.000  0.000  0.000  0.000  0.000  0.000   3.53   0.00   0.00      0      0    174.8   0.43   0.00   0.54    1.20    1.03    0.84    0.14    0.00    0.00      0      0      0       0       4 20.58
 2013 164    39    23   11.0      3   0.94    559     18      0    169    577    577      0    0.0  0.000      0      0  0.000  0.000  0.000  0.000  0.000  0.000  0.000   3.47   0.00   0.00      0      0    168.7   0.51   0.00   0.56    1.32    1.13    0.94    0.17    0.01    0.00      0      0      0       0       5 20.30
 2013 165    40    24   12.0      3   1.06    649     25      0    173    673    673      0    0.0  0.000      0      0  0.000  0.000  0.000  0.000  0.000  0.000  0.000   3.41   0.00   0.00      0      0    164.1   0.57   0.00   0.59    1.34    1.16    0.96    0.18    0.01    0.00      0      0      0       0       6 20.80
 2013 166    41    25   12.0      3   1.24    779     39      0    183    818    818      0    0.0  0.000      0      0  0.000  0.000  0.000  0.000  0.000  0.000  0.000   3.36   0.00   0.00      0      0    158.6   0.67   0.00   0.61    1.40    1.21    1.01    0.20    0.02    0.00      0      0      0       0       7 19.90
 2013 167    42    26   13.0      3   1.41    916     60      0    224    977    977      0    0.0  0.000      0      0  0.000  0.000  0.000  0.000  0.000  0.000  0.000   3.30   0.00   0.00      0      0    153.8   0.76   0.00   0.64    1.65    1.43    1.21    0.26    0.05    0.00      0      0      0       0       8 20.05
 2013 168    43    27   13.0      3   1.57   1051     89      0    232   1140   1140      0    0.0  0.000      0      0  0.000  0.000  0.000  0.000  0.000  0.000  0.000   3.24   0.00   0.00      0      0    149.9   0.85   0.00   0.66    1.70    1.47    1.24    0.28    0.05    0.00      0      0      0       0       9 20.95
 2013 169    44    28   14.0      3   1.69   1148    117      0    309   1265   1265      0    0.0  0.000      0      0  0.023  0.349  0.000  0.000  0.000  0.000  0.000   3.19   0.00   0.00      0      0    147.2   0.91   0.00   0.69    2.18    1.87    1.59    0.40    0.13    0.00      0      0      0       0      10 20.75
 2013 170    45    29   14.0      3   1.76   1222    142      0    366   1364   1364      0    0.0  0.000      0      0  0.194  0.463  0.000  0.000  0.000  0.000  0.000   3.19   0.00   0.00      0      0    144.0   0.95   0.00   0.71    2.53    2.16    1.84    0.49    0.20    0.00      0      0      0       0      12 18.60
 2013 171    46    30   14.0      3   1.86   1304    177      0    371   1481   1481      0    0.0  0.000      0      0  0.000  0.094  0.000  0.000  0.000  0.000  0.000   3.08   0.00   0.00      0      0    142.3   1.00   0.00   0.73    2.56    2.18    1.86    0.50    0.20    0.00      0      0      0       0      14 20.40
 2013 172    47    31   15.0      3   1.89   1364    209      0    395   1573   1573      0    0.0  0.000      0      0  0.399  0.600  0.000  0.000  0.000  0.000  0.000   3.15   0.00   0.00      0      0    138.3   1.02   0.00   0.76    2.66    2.30    1.97    0.53    0.24    0.00      0      0      0       0      15 20.10
 2013 173    48    32   15.0      3   1.88   1406    234      0    419   1640   1640      0    0.0  0.000      0      0  0.609  0.740  0.000  0.000  0.000  0.000  0.000   3.17   0.00   0.00      0      0    133.5   1.02   0.00   0.78    2.65    2.44    2.09    0.58    0.28    0.00      0      0      0       0      17 20.90
 2013 174    49    33   16.0      3   1.90   1460    275      0    423   1735   1735      0    0.0  0.000      0      0  0.428  0.619  0.000  0.000  0.000  0.000  0.000   2.99   0.00   0.00      0      0    129.9   1.02   0.00   0.81    2.67    2.45    2.10    0.58    0.28    0.01      0      0      0       0      17 21.10
 2013 175    50    34   16.0      3   1.99   1543    344      0    429   1888   1888      0    0.0  0.000      0      0  0.000  0.000  0.000  0.000  0.000  0.000  0.000   2.88   0.00   0.00      0      0    129.0   1.07   0.00   0.83    2.70    2.48    2.12    0.59    0.29    0.01      0      0      0       0      19 19.10
 2013 176    51    35   17.0      3   2.07   1611    410      0    434   2021   2021      0    0.0  0.000      0      0  0.000  0.000  0.000  0.000  0.000  0.000  0.000   2.83   0.00   0.00      0      0    128.2   1.11   0.00   0.85    2.73    2.51    2.13    0.60    0.30    0.01      0      0      0       0      22 19.00
 2013 177    52    36   17.0      3   2.23   1761    572      0    449   2333   2333      0    0.0  0.000      0      0  0.000  0.000  0.000  0.000  0.000  0.000  0.000   2.78   0.00   0.00      0      0    126.7   1.20   0.00   0.88    2.81    2.58    2.18    0.62    0.32    0.02      0      0      0       0      24 20.25
 2013 178    53    37   18.0      3   2.30   1846    656      0    457   2502   2503      0    0.0  0.000      1      0  0.228  0.486  0.000  0.000  0.000  0.000  0.000   2.79   0.00   0.00      0      1    124.5   1.24   0.00   0.90    2.84    2.61    2.22    0.62    0.32    0.03      0      0      0       0      26 21.63
 2013 179    54    38   18.0      3   2.38   1920    765      0    465   2685   2688      0    0.0  0.000      3      0  0.000  0.000  0.000  0.000  0.000  0.000  0.000   2.69   0.00   0.00      0      3    123.8   1.28   0.00   0.93    2.88    2.65    2.25    0.63    0.33    0.04      0      0      0       0      28 18.55
 2013 180    55    39   19.0      3   2.48   2014    934      0    477   2949   2959      0    0.0  0.000     10      0  0.000  0.000  0.000  0.155  0.000  0.000  0.000   2.65   0.00   0.00      0     10    123.0   1.34   0.00   0.95    2.93    2.70    2.31    0.65    0.34    0.05      0      0      0       0      31 18.60
 2013 181    56    40   19.0      3   2.57   2102   1115      0    491   3217   3236      0    0.0  0.000     20      0  0.000  0.000  0.000  0.025  0.000  0.000  0.000   2.61   0.00   0.01      0     20    122.3   1.39   0.00   0.97    2.99    2.76    2.36    0.67    0.36    0.06      0      0      0       0      33 19.60
 2013 182    57    41   20.0      3   2.64   2166   1264      0    500   3430   3460      0    0.0  0.000     30      0  0.000  0.000  0.000  0.191  0.000  0.000  0.000   2.57   0.00   0.01      0     30    121.8   1.42   0.00   1.00    3.02    2.80    2.40    0.68    0.37    0.07      0      0      0       0      35 21.25
 2013 183    58    42   20.0      3   2.73   2250   1460      0    515   3709   3768      0    0.0  0.000     58      0  0.000  0.000  0.000  0.138  0.000  0.000  0.000   2.53   0.00   0.02      0     58    121.2   1.47   0.00   1.00    3.06    2.86    2.47    0.70    0.38    0.09      0      0      0       0      38 20.20
 2013 184    59    43   21.0      3   2.82   2340   1670      0    542   4010   4121      0    0.0  0.000    111      0  0.000  0.000  0.000  0.068  0.000  0.000  0.000   2.50   0.00   0.03      0    111    120.5   1.52   0.00   1.00    3.15    2.98    2.59    0.74    0.41    0.12      0      0      0       0      41 20.55
 2013 185    60    44   21.0      3   2.89   2411   1845      0    556   4255   4411      0    0.0  0.000    156      0  0.000  0.000  0.000  0.008  0.000  0.000  0.000   2.45   0.00   0.04      0    156    120.0   1.56   0.00   1.00    3.19    3.03    2.64    0.75    0.43    0.14      0      0      0       0      43 20.55
 2013 186    61    45   22.0      3   2.97   2489   2016      0    571   4505   4746      0    0.0  0.000    242      0  0.000  0.000  0.000  0.000  0.000  0.000  0.000   2.44   0.00   0.05      0    242    119.4   1.60   0.00   1.00    3.23    3.10    2.71    0.77    0.44    0.16      0      0      0       0      46 19.25
 2013 187    62    46   22.0      3   3.06   2574   2161      0    599   4736   5109      0    0.0  0.000    373      0  0.000  0.000  0.000  0.000  0.000  0.000  0.000   2.41   0.00   0.07      0    373    118.9   1.60   0.00   1.00    3.32    3.21    2.82    0.81    0.47    0.19      0      0      0       0      49 20.20
 2013 188    63    47   22.0      3   3.11   2627   2274      0    609   4902   5334      0    0.0  0.000    432      0  0.000  0.000  0.000  0.000  0.000  0.000  0.000   2.34   0.00   0.08      0    432    118.5   1.60   0.00   1.00    3.34    3.25    2.86    0.83    0.48    0.21      0      0      0       0      52 20.75
 2013 189    64    48   22.0      3   3.18   2697   2376      0    622   5073   5628      0    0.0  0.000    555      0  0.000  0.000  0.000  0.000  0.000  0.000  0.000   2.32   0.00   0.10      0    555    118.0   1.60   0.00   1.00    3.38    3.30    2.91    0.85    0.50    0.23      0      0      0       0      55 20.70
 2013 190    65    49   22.0      3   3.27   2785   2432      0    640   5217   5997      0    0.0  0.000    780      0  0.000  0.000  0.000  0.000  0.000  0.000  0.000   2.32   0.00   0.13      0    780    117.5   1.60   0.00   1.00    3.41    3.37    2.99    0.87    0.52    0.25      0      0      0       0      58 20.65
 2013 191    66    50   22.0      4   3.27   2753   2550      0    652   5304   6321      0    0.0  0.000   1017      0  0.000  0.000  0.000  0.000  0.000  0.000  0.000   2.30   0.00   0.16      0   1017    118.8   1.60   0.00   1.00    3.43    3.42    3.04    0.89    0.53    0.27      0      0      0       0      61 19.20
 2013 192    67    51   22.0      4   3.27   2719   2617      0    659   5336   6527      0    0.0  0.000   1191      0  0.000  0.000  0.000  0.000  0.000  0.000  0.000   2.29   0.00   0.18      0   1191    120.2   1.60   0.00   1.00    3.43    3.45    3.07    0.90    0.54    0.28      0      0      0       0      61 19.30
 2013 193    68    52   22.0      4   3.25   2682   2710      0    673   5392   6890      0    0.0  0.000   1498      0  0.000  0.000  0.000  0.000  0.000  0.000  0.000   2.27   0.00   0.22      0   1498    121.3   1.60   0.00   1.00    3.46    3.50    3.13    0.92    0.56    0.30      0      0      0       0      61 19.15
 2013 194    69    53   22.0      4   3.24   2642   2781      0    685   5423   7206      0    0.0  0.000   1784      0  0.000  0.000  0.000  0.000  0.000  0.000  0.000   2.25   0.00   0.25      0   1784    122.4   1.60   0.00   1.00    3.48    3.55    3.18    0.93    0.57    0.32      0      0      0       0      61 20.10
 2013 195    70    54   22.0      4   3.22   2599   2848      0    699   5447   7548      0    0.0  0.000   2101      0  0.000  0.000  0.000  0.000  0.000  0.000  0.000   2.24   0.00   0.28      0   2101    123.8   1.60   0.00   1.00    3.51    3.61    3.23    0.95    0.59    0.34      0      0      0       0      61 19.75
 2013 196    71    55   22.0      4   3.20   2554   2904      0    706   5458   7754      0    0.0  0.000   2297      0  0.000  0.079  0.000  0.000  0.000  0.000  0.000   2.24   0.00   0.30      0   2297    125.3   1.60   0.00   1.00    3.52    3.63    3.26    0.96    0.60    0.35      0      0      0       0      61 20.50
 2013 197    72    56   22.0      4   3.17   2505   3045      0    714   5550   7961      0    0.0  0.000   2411      0  0.213  0.476  0.000  0.000  0.000  0.000  0.000   2.20   0.00   0.30      0   2411    126.4   1.60   0.00   1.00    3.57    3.66    3.29    0.97    0.60    0.36      0      0      0       0      61 20.75
 2013 198    73    57   22.0      4   3.17   2453   3081      0    722   5534   8175      0    0.0  0.000   2640      0  0.000  0.000  0.000  0.000  0.000  0.000  0.000   2.21   0.00   0.32      0   2640    129.0   1.60   0.00   1.00    3.61    3.69    3.32    0.98    0.61    0.37      0      0      0       0      61 19.40
 2013 199    74    58   22.0      5   3.11   2453   3081    157    746   5534   8332   2886    5.4  0.019   2797      6  0.000  0.000  0.000  0.000  0.000  0.000  0.000   2.16   5.61   0.34      0   2797    126.7   1.60   0.00   1.00    3.75    3.79    3.41    1.01    0.64    0.40      0      0      0       0      61 19.75
 2013 200    75    59   22.0      5   3.10   2453   3081    330    796   5534   8505   2886   11.4  0.039   2970      6  0.000  0.000  0.000  0.000  0.000  0.000  0.000   2.10  11.11   0.35      0   2970    126.4   1.60   0.00   1.00    4.00    4.00    3.60    1.07    0.69    0.45      0      0      0       0      61 18.90
 2013 201    76    60   22.0      5   3.09   2453   3081    469    843   5534   8643   2886   16.2  0.054   3109      6  0.000  0.000  0.000  0.000  0.000  0.000  0.000   2.06  15.07   0.36      0   3109    126.1   1.60   0.00   1.00    4.00    4.00    3.78    1.13    0.73    0.51      0      0      0       0      61 20.60
 2013 202    77    61   22.0      5   3.08   2453   3081    624    899   5534   8799   2886   21.6  0.071   3265      6  0.000  0.000  0.000  0.000  0.000  0.000  0.000   2.01  19.13   0.37      0   3265    125.7   1.60   0.00   1.00    4.00    4.00    3.98    1.20    0.79    0.57      0      0      0       0      61 19.80
 2013 203    78    62   22.0      5   3.07   2453   3081    778    929   5534   8953   2886   27.0  0.087   3418      6  0.000  0.000  0.000  0.000  0.000  0.000  0.000   1.96  22.76   0.38      0   3418    125.2   1.60   0.00   1.00    4.00    4.00    4.00    1.24    0.82    0.60      0      0      0       0      61 19.90
 2013 204    79    63   22.0      5   3.06   2453   3081    906    984   5534   9080   2886   31.4  0.100   3546      6  0.000  0.127  0.000  0.000  0.000  0.000  0.000   1.92  25.55   0.39      0   3546    124.5   1.60   0.00   1.00    4.00    4.00    4.00    1.31    0.87    0.66      0      0      0       0      61 21.10
 2013 205    80    64   22.0      5   2.98   2453   3081    997   1007   5534   9172   2886   34.5  0.109   3637      6  0.485  0.657  0.000  0.000  0.000  0.000  0.000   1.89  27.41   0.40      0   3637    121.5   1.60   0.00   1.00    4.00    4.00    4.00    1.34    0.89    0.69      0      0      0       0      61 21.25
 2013 206    81    65   22.0      5   2.91   2453   3081   1090   1020   5534   9264   2886   37.8  0.118   3730      6  0.511  0.674  0.000  0.000  0.000  0.000  0.000   1.86  29.22   0.40      0   3730    118.4   1.60   0.00   1.00    4.00    4.00    4.00    1.35    0.91    0.70      0      0      0       0      61 21.05
 2013 207    82    66   22.0      5   2.91   2453   3081   1236   1052   5534   9410   2886   42.8  0.131   3876      6  0.000  0.000  0.000  0.000  0.000  0.000  0.000   1.81  31.88   0.41      0   3876    118.4   1.60   0.00   1.00    4.00    4.00    4.00    1.38    0.94    0.74      0      0      0       0      61 20.25
 2013 208    83    67   22.0      5   2.91   2453   3081   1409   1059   5534   9584   2886   48.8  0.147   4049      6  0.000  0.000  0.000  0.089  0.000  0.000  0.000   1.76  34.80   0.42      0   4049    118.4   1.60   0.00   1.00    4.00    4.00    4.00    1.39    0.94    0.75      0      0      0       0      61 18.65
 2013 209    84    68   22.0      5   2.91   2453   3081   1533   1117   5534   9708   2886   53.1  0.158   4174      6  0.000  0.000  0.000  0.146  0.000  0.000  0.000   1.72  36.74   0.43      0   4174    118.4   1.60   0.00   1.00    4.00    4.00    4.00    1.46    1.00    0.80      0      0      0       0      61 21.25
 2013 210    85    69   22.0      5   2.91   2453   3081   1695   1153   5534   9869   2886   58.7  0.172   4335      6  0.000  0.000  0.000  0.186  0.000  0.000  0.000   1.66  39.09   0.44      0   4335    118.4   1.60   0.00   1.00    4.00    4.00    4.00    1.50    1.03    0.84      0      0      0       0      61 19.55
 2013 211    86    70   22.0      5   2.88   2453   3081   1867   1175   5534  10041   2886   64.7  0.186   4507      6  0.000  0.000  0.000  0.138  0.000  0.000  0.000   1.61  41.42   0.45      0   4507    117.4   1.60   0.00   1.00    4.00    4.00    4.00    1.52    1.05    0.86      0      0      0       0      61 19.05
 2013 212    87    71   22.0      5   2.84   2453   3081   2015   1206   5534  10190   2886   69.8  0.198   4655      6  0.000  0.000  0.000  0.073  0.000  0.000  0.000   1.47  43.29   0.46      0   4655    115.9   1.60   0.00   1.00    4.00    4.00    4.00    1.56    1.08    0.89      0      0      0       0      67 20.15
 2013 213    88    72   22.0      5   2.80   2453   3081   2144   1224   5534  10318   2886   74.3  0.208   4784      6  0.000  0.000  0.000  0.109  0.000  0.000  0.000   1.43  44.81   0.46      0   4784    114.1   1.60   0.00   1.00    4.00    4.00    4.00    1.58    1.09    0.91      0      0      0       0      73 21.05
 2013 214    89    73   22.0      5   2.76   2453   3081   2300   1255   5534  10474   2886   79.7  0.220   4940      6  0.000  0.000  0.000  0.046  0.000  0.000  0.000   1.41  46.55   0.47      0   4940    112.3   1.60   0.00   1.00    4.00    4.00    4.00    1.61    1.12    0.94      0      0      0       0      79 19.80
 2013 215    90    74   22.0      5   2.70   2453   3081   2432   1318   5534  10606   2886   84.3  0.229   5072      6  0.000  0.000  0.000  0.047  0.000  0.000  0.000   1.39  47.94   0.48      0   5072    110.3   1.60   0.00   1.00    4.00    4.00    4.00    1.68    1.18    1.01      0      0      0       0      86 20.90
 2013 216    91    75   22.0      5   2.65   2453   3081   2595   1343   5534  10770   2886   89.9  0.241   5235      6  0.000  0.000  0.000  0.001  0.000  0.000  0.000   1.35  49.57   0.49      0   5235    108.2   1.60   0.00   1.00    4.00    4.00    4.00    1.71    1.20    1.03      0      0      0       0      92 19.45
 2013 217    92    76   22.0      5   2.60   2453   3081   2767   1352   5534  10942   2886   95.9  0.253   5407      6  0.000  0.000  0.000  0.000  0.000  0.000  0.000   1.32  51.17   0.49      0   5407    106.0   1.60   0.00   1.00    4.00    4.00    4.00    1.72    1.21    1.04      0      0      0       0      99 19.05
 2013 218    93    77   22.0      5   2.54   2453   3081   2906   1378   5534  11080   2886  100.7  0.262   5546      6  0.000  0.000  0.000  0.000  0.000  0.000  0.000   1.29  52.39   0.50      0   5546    103.4   1.60   0.00   1.00    4.00    4.00    4.00    1.75    1.23    1.07      0      0      0       0     106 20.60
 2013 219    94    78   22.0      5   2.47   2453   3081   3024   1417   5534  11198   2886  104.8  0.270   5664      6  0.000  0.132  0.000  0.000  0.000  0.000  0.000   1.27  53.39   0.51      0   5664    100.5   1.60   0.00   1.00    4.00    4.00    4.00    1.80    1.27    1.11      0      0      0       0     113 21.55
 2013 220    95    79   22.0      5   2.39   2453   3081   3175   1429   5534  11350   2886  110.0  0.280   5815      6  0.000  0.000  0.000  0.000  0.000  0.000  0.000   1.24  54.60   0.51      0   5815     97.6   1.60   0.00   1.00    4.00    4.00    4.00    1.81    1.28    1.13      0      0      0       0     120 20.00
 2013 221    96    80   22.0      5   2.31   2453   3081   3297   1456   5534  11472   2886  114.3  0.287   5938      6  0.000  0.000  0.000  0.014  0.000  0.000  0.000   1.21  55.54   0.52      0   5938     94.3   1.60   0.00   1.00    4.00    4.00    4.00    1.85    1.31    1.15      0      0      0       0     127 21.18
 2013 222    97    81   22.0      5   2.23   2453   3081   3451   1469   5534  11626   2886  119.6  0.297   6091      6  0.000  0.000  0.000  0.142  0.000  0.000  0.000   1.19  56.66   0.52      0   6091     91.0   1.60   0.00   1.00    4.00    4.00    4.00    1.87    1.32    1.17      0      0      0       0     134 19.90
 2013 223    98    82   22.0      5   2.15   2453   3081   3615   1466   5534  11789   2886  125.2  0.307   6255      6  0.000  0.000  0.000  0.107  0.000  0.000  0.000   1.16  57.79   0.53      0   6255     87.6   1.60   0.00   1.00    3.99    4.00    4.00    1.86    1.32    1.17      0      0      0       0     141 19.45
 2013 224    99    83   22.0      5   2.06   2453   3081   3775   1476   5534  11949   2886  130.8  0.316   6415      6  0.000  0.000  0.000  0.063  0.000  0.000  0.000   1.14  58.84   0.54      0   6415     84.0   1.60   0.00   1.00    4.00    4.00    4.00    1.88    1.33    1.18      0      0      0       0     149 19.60
 2013 225   100    84   22.0      5   1.96   2453   3081   3923   1494   5534  12098   2886  135.9  0.324   6563      6  0.000  0.000  0.000  0.010  0.000  0.000  0.000   1.12  59.77   0.54      0   6563     80.0   1.60   0.00   1.00    4.00    4.00    4.00    1.90    1.34    1.20      0      0      0       0     156 20.15
 2013 226   101    85   22.0      5   1.86   2453   3081   4059   1530   5534  12234   2886  140.7  0.332   6700      6  0.000  0.000  0.000  0.000  0.000  0.000  0.000   1.10  60.59   0.55      0   6700     75.6   1.60   0.00   1.00    4.00    4.00    4.00    1.96    1.38    1.24      0      0      0       0     164 20.70
 2013 227   102    86   22.0      5   1.74   2453   3081   4199   1559   5534  12374   2886  145.5  0.339   6839      6  0.000  0.000  0.000  0.000  0.000  0.000  0.000   1.07  61.40   0.55      0   6839     71.1   1.60   0.00   1.00    4.00    4.00    4.00    2.00    1.40    1.26      0      0      0       0     171 20.55
 2013 228   103    87   22.0      5   1.63   2453   3063   4358   1551   5517  12515   2886  151.0  0.348   6998      6  0.000  0.000  0.000  0.000  0.000  0.000  0.000   1.04  62.27   0.56      0   6998     66.5   1.60   0.00   1.00    4.00    4.00    4.00    2.00    1.40    1.26      0      0      0       0     179 19.65
 2013 229   104    88   22.0      5   1.51   2453   3081   4509   1566   5534  12683   2886  156.2  0.355   7149      6  0.000  0.000  0.000  0.000  0.000  0.000  0.000   1.02  63.07   0.56      0   7149     61.5   1.60   0.00   1.00    4.00    4.00    4.00    2.02    1.42    1.28      0      0      0       0     187 20.05
 2013 230   105    89   22.0      5   1.38   2453   3081   4655   1580   5534  12829   2886  161.3  0.363   7295      6  0.000  0.000  0.000  0.000  0.000  0.000  0.000   1.00  63.81   0.57      0   7295     56.3   1.60   0.00   1.00    4.00    4.00    4.00    2.04    1.43    1.29      0      0      0       0     195 20.25
 2013 231   106    90   22.0      5   1.38   2453   3081   4655   1580   5534  12829   2886  161.3  0.363   7295      6  0.000  0.000  0.000  0.000  0.000  0.000  0.000   1.00  63.81   0.57      0   7295     56.3   1.60   0.00   1.00    4.00    4.00    4.00    2.06    1.45    1.30      0      0      0       0     195 18.75
 2013 232   107    91   22.0      5   1.38   2453   3081   4655   1580   5534  12829   2886  161.3  0.363   7295      6  0.000  0.000  0.000  0.016  0.000  0.000  0.000   1.00  63.81   0.57      0   7295     56.3   1.60   0.00   1.00    4.00    4.00    4.00    2.08    1.46    1.31      0      0      0       0     195 19.10
 2013 233   108    92   22.0      5   1.38   2453   3081   4655   1580   5534  12829   2886  161.3  0.363   7295      6  0.000  0.000  0.000  0.016  0.000  0.000  0.000   1.00  63.81   0.57      0   7295     56.3   1.60   0.00   1.00    4.00    4.00    4.00    2.10    1.48    1.32      0      0      0       0     195  0.00

*DSSAT Cropping System Model Ver. 4.6.1.000 -release      MAY 05, 2017; 11:09:12
                                                                                
*RUN   3        : P3                        MZCER046 2\000002    3              
 MODEL          : MZCER046 - Maize                                              
 EXPERIMENT     : 2\000002 BN Calibracion Cerete 2013                           
 DATA PATH      : C:\L\0\00000                                                  
 TREATMENT  3   : P3                        MZCER046                            
  
!                                                                                                                                                                                                                                      Root Dens. (cm/cm3) by soil depth (cm):
!                                                                                                                                                                                                                                      0-5    5-15   15-26   26-51   51-75  75-100
@YEAR DOY   DAS   DAP   L#SD   GSTD   LAID   LWAD   SWAD   GWAD   RWAD   VWAD   CWAD   G#AD   GWGD   HIAD   PWAD   P#AD   WSPD   WSGD   NSTD   EWSD  PST1A  PST2A   KSTD   LN%D   SH%D   HIPD   PWDD   PWTD     SLAD   CHTD   CWID   RDPD    RL1D    RL2D    RL3D    RL4D    RL5D    RL6D   CDAD   LDAD   SDAD   SNW0C   SNW1C  DTTD
 2013 157    16     0    0.0      0   0.00      0      0      0      0      0      0      0    0.0  0.000      0      0  0.000  0.000  0.000  0.000  0.000  0.000  0.000   0.00   0.00   0.00      0      0      0.0   0.00   0.00   0.05    0.00    0.00    0.00    0.00    0.00    0.00      0      0      0       0       0 20.12
 2013 158    17     1    0.0      0   0.00      0      0      0      0      0      0      0    0.0  0.000      0      0  0.000  0.000  0.000  0.000  0.000  0.000  0.000   0.00   0.00   0.00      0      0      0.0   0.00   0.00   0.08    0.00    0.00    0.00    0.00    0.00    0.00      0      0      0       0       0 20.80
 2013 159    18     2    0.0      0   0.00      0      0      0      0      0      0      0    0.0  0.000      0      0  0.000  0.000  0.000  0.000  0.000  0.000  0.000   0.00   0.00   0.00      0      0      0.0   0.00   0.00   0.11    0.00    0.00    0.00    0.00    0.00    0.00      0      0      0       0       0 20.61
 2013 160    19     3    0.0      0   0.00      0      0      0      0      0      0      0    0.0  0.000      0      0  0.000  0.000  0.000  0.000  0.000  0.000  0.000   0.00   0.00   0.00      0      0      0.0   0.00   0.00   0.14    0.00    0.00    0.00    0.00    0.00    0.00      0      0      0       0       0 21.84
 2013 161    20     4    0.0      0   0.00      0      0      0      0      0      0      0    0.0  0.000      0      0  0.000  0.000  0.000  0.000  0.000  0.000  0.000   0.00   0.00   0.00      0      0      0.0   0.00   0.00   0.17    0.00    0.00    0.00    0.00    0.00    0.00      0      0      0       0       0 19.97
 2013 162    21     5    2.0      1   0.00     12     12      0     12     25     25      0    0.0  0.000      0      0  0.000  0.000  0.012  0.000  0.000  0.000  0.000   4.40   0.00   0.00      0      0     37.7   0.00   0.00   0.20    0.25    0.12    0.03    0.00    0.00    0.00      0      0      0       0       0 21.32
 2013 163    22     6    2.0      1   0.01     12     12      0     13     25     25      0    0.0  0.000      0      0  0.000  0.000  0.007  0.000  0.000  0.000  0.000   4.40   0.00   0.00      0      0     75.9   0.01   0.00   0.22    0.25    0.13    0.03    0.00    0.00    0.00      0      0      0       0       0 20.58
 2013 164    23     7    3.0      1   0.01     12     12      0     14     25     25      0    0.0  0.000      0      0  0.000  0.000  0.000  0.000  0.000  0.000  0.000   4.40   0.00   0.00      0      0    120.1   0.01   0.00   0.24    0.26    0.13    0.03    0.00    0.00    0.00      0      0      0       0       0 20.78
 2013 165    24     8    4.0      1   0.03     12     12      0     15     25     25      0    0.0  0.000      0      0  0.000  0.000  0.000  0.000  0.000  0.000  0.000   4.40   0.00   0.00      0      0    274.1   0.02   0.00   0.26    0.27    0.14    0.04    0.00    0.00    0.00      0      0      0       0       0 21.02
 2013 166    25     9    4.0      1   0.06     18     12      0     16     30     30      0    0.0  0.000      0      0  0.000  0.000  0.000  0.000  0.000  0.000  0.000   3.64   0.00   0.00      0      0    320.0   0.03   0.00   0.28    0.28    0.15    0.05    0.00    0.00    0.00      0      0      0       0       0 20.40
 2013 167    26    10    5.0      1   0.08     29     12      0     18     41     41      0    0.0  0.000      0      0  0.000  0.000  0.000  0.000  0.000  0.000  0.000   3.01   0.00   0.00      0      0    289.5   0.04   0.00   0.29    0.29    0.16    0.06    0.00    0.00    0.00      0      0      0       0       0 20.70
 2013 168    27    11    5.0      1   0.12     44     12      0     20     56     56      0    0.0  0.000      0      0  0.000  0.000  0.000  0.000  0.000  0.000  0.000   2.99   0.00   0.00      0      0    266.0   0.06   0.00   0.30    0.31    0.17    0.07    0.00    0.00    0.00      0      0      0       0       0 21.28
 2013 169    28    12    6.0      1   0.14     57     12      0     29     69     69      0    0.0  0.000      0      0  0.000  0.250  0.000  0.000  0.000  0.000  0.000   3.21   0.00   0.00      0      0    251.6   0.08   0.00   0.32    0.39    0.24    0.12    0.00    0.00    0.00      0      0      0       0       0 21.35
 2013 170    29    13    6.0      1   0.18     74     12      0     37     87     87      0    0.0  0.000      0      0  0.000  0.110  0.000  0.000  0.000  0.000  0.000   3.13   0.00   0.00      0      0    238.3   0.10   0.00   0.33    0.47    0.30    0.17    0.01    0.00    0.00      0      0      0       0       0 19.24
 2013 171    30    14    7.0      2   0.22     89     12      0     40    101    101      0    0.0  0.000      0      0  0.000  0.000  0.000  0.000  0.000  0.000  0.000   3.29   0.00   0.00      0      0    245.2   0.12   0.00   0.34    0.49    0.31    0.19    0.01    0.00    0.00      0      0      0       0       1 20.61
 2013 172    31    15    7.0      2   0.25    107     12      0     48    119    119      0    0.0  0.000      0      0  0.170  0.447  0.007  0.000  0.000  0.000  0.000   3.31   0.00   0.00      0      0    235.1   0.14   0.00   0.37    0.56    0.37    0.24    0.02    0.00    0.00      0      0      0       0       1 20.52
 2013 173    32    16    8.0      2   0.27    122     12      0     58    134    134      0    0.0  0.000      0      0  0.429  0.620  0.000  0.000  0.000  0.000  0.000   3.41   0.00   0.00      0      0    224.8   0.15   0.00   0.39    0.56    0.46    0.31    0.03    0.00    0.00      0      0      0       0       1 21.60
 2013 174    33    17    8.0      2   0.32    150     12      0     63    162    162      0    0.0  0.000      0      0  0.056  0.371  0.000  0.000  0.000  0.000  0.000   3.14   0.00   0.00      0      0    216.6   0.17   0.00   0.42    0.59    0.49    0.34    0.03    0.00    0.00      0      0      0       0       1 21.33
 2013 175    34    18    9.0      2   0.38    182     12      0     68    194    194      0    0.0  0.000      0      0  0.000  0.000  0.000  0.000  0.000  0.000  0.000   3.78   0.00   0.00      0      0    209.7   0.21   0.00   0.44    0.63    0.52    0.36    0.04    0.00    0.00      0      0      0       0       2 19.46
 2013 176    35    19    9.0      2   0.43    212     12      0     73    225    225      0    0.0  0.000      0      0  0.000  0.000  0.000  0.036  0.000  0.000  0.000   3.74   0.00   0.00      0      0    204.1   0.23   0.00   0.47    0.67    0.56    0.39    0.05    0.00    0.00      0      0      0       0       2 19.24
 2013 177    36    20   10.0      2   0.54    279     12      0     95    291    291      0    0.0  0.000      0      0  0.000  0.025  0.000  0.000  0.000  0.000  0.000   3.69   0.00   0.00      0      0    193.0   0.29   0.00   0.49    0.82    0.70    0.49    0.08    0.00    0.00      0      0      0       0       2 20.97
 2013 178    37    21   10.0      3   0.65    353     13      0    103    366    366      0    0.0  0.000      0      0  0.000  0.105  0.000  0.000  0.000  0.000  0.000   3.61   0.00   0.00      0      0    183.6   0.35   0.00   0.52    0.87    0.75    0.54    0.09    0.00    0.00      0      0      0       0       3 22.19
 2013 179    38    22   11.0      3   0.77    433     14      0    107    447    447      0    0.0  0.000      0      0  0.000  0.000  0.000  0.000  0.000  0.000  0.000   3.54   0.00   0.00      0      0    177.0   0.41   0.00   0.54    0.89    0.77    0.56    0.10    0.00    0.00      0      0      0       0       3 19.00
 2013 180    39    23   11.0      3   0.87    506     17      0    143    523    523      0    0.0  0.000      0      0  0.000  0.000  0.000  0.178  0.000  0.000  0.000   3.48   0.00   0.00      0      0    172.0   0.47   0.00   0.56    1.11    0.97    0.75    0.16    0.01    0.00      0      0      0       0       4 18.60
 2013 181    40    24   12.0      3   1.03    620     24      0    163    645    645      0    0.0  0.000      0      0  0.000  0.000  0.000  0.065  0.000  0.000  0.000   3.43   0.00   0.00      0      0    165.6   0.55   0.00   0.59    1.23    1.08    0.86    0.19    0.02    0.00      0      0      0       0       5 19.60
 2013 182    41    25   12.0      3   1.17    728     36      0    176    764    764      0    0.0  0.000      0      0  0.000  0.000  0.000  0.222  0.000  0.000  0.000   3.37   0.00   0.00      0      0    160.7   0.63   0.00   0.61    1.30    1.15    0.93    0.22    0.03    0.00      0      0      0       0       5 21.25
 2013 183    42    26   13.0      3   1.32    842     53      0    219    895    895      0    0.0  0.000      0      0  0.000  0.000  0.000  0.163  0.000  0.000  0.000   3.31   0.00   0.00      0      0    156.4   0.71   0.00   0.64    1.55    1.38    1.15    0.28    0.05    0.00      0      0      0       0       6 20.20
 2013 184    43    27   13.0      3   1.48    972     80      0    281   1052   1052      0    0.0  0.000      0      0  0.000  0.000  0.000  0.087  0.000  0.000  0.000   3.25   0.00   0.00      0      0    152.2   0.80   0.00   0.66    1.90    1.71    1.45    0.38    0.11    0.00      0      0      0       0       7 20.55
 2013 185    44    28   14.0      3   1.65   1115    118      0    306   1233   1233      0    0.0  0.000      0      0  0.000  0.000  0.000  0.027  0.000  0.000  0.000   3.20   0.00   0.00      0      0    148.3   0.89   0.00   0.69    2.04    1.85    1.57    0.42    0.13    0.00      0      0      0       0       9 20.55
 2013 186    45    29   14.0      3   1.82   1256    166      0    353   1422   1422      0    0.0  0.000      0      0  0.000  0.000  0.000  0.000  0.000  0.000  0.000   3.15   0.00   0.00      0      0    144.9   0.98   0.00   0.71    2.30    2.09    1.79    0.49    0.18    0.00      0      0      0       0      10 19.25
 2013 187    46    30   14.0      3   1.99   1407    230      0    414   1637   1637      0    0.0  0.000      0      0  0.000  0.000  0.000  0.000  0.000  0.000  0.000   3.09   0.00   0.00      0      0    141.8   1.07   0.00   0.74    2.64    2.41    2.07    0.58    0.25    0.00      0      0      0       0      12 20.20
 2013 188    47    31   15.0      3   2.14   1532    293      0    422   1825   1825      0    0.0  0.000      0      0  0.000  0.000  0.000  0.000  0.000  0.000  0.000   3.04   0.00   0.00      0      0    139.5   1.15   0.00   0.76    2.69    2.45    2.10    0.60    0.27    0.00      0      0      0       0      14 20.75
 2013 189    48    32   15.0      3   2.31   1688    389      0    434   2077   2077      0    0.0  0.000      0      0  0.000  0.000  0.000  0.000  0.000  0.000  0.000   2.99   0.00   0.00      0      0    136.9   1.24   0.00   0.79    2.75    2.51    2.15    0.61    0.28    0.00      0      0      0       0      16 20.70
 2013 190    49    33   16.0      3   2.49   1853    507      0    472   2359   2359      0    0.0  0.000      0      0  0.000  0.000  0.000  0.000  0.000  0.000  0.000   2.94   0.00   0.00      0      0    134.4   1.34   0.00   0.81    2.95    2.70    2.31    0.66    0.33    0.01      0      0      0       0      18 20.65
 2013 191    50    34   16.0      3   2.66   2008    635      0    502   2644   2644      0    0.0  0.000      0      0  0.000  0.000  0.000  0.000  0.000  0.000  0.000   2.89   0.00   0.00      0      0    132.3   1.43   0.00   0.83    3.11    2.85    2.43    0.70    0.37    0.03      0      0      0       0      21 19.20
 2013 192    51    35   17.0      3   2.78   2120    742      0    512   2862   2862      0    0.0  0.000      0      0  0.000  0.000  0.000  0.005  0.000  0.000  0.000   2.84   0.00   0.00      0      0    130.9   1.50   0.00   0.86    3.16    2.90    2.47    0.72    0.38    0.03      0      0      0       0      23 19.30
 2013 193    52    36   17.0      3   2.94   2280    912      0    550   3192   3192      0    0.0  0.000      0      0  0.000  0.000  0.000  0.000  0.000  0.000  0.000   2.80   0.00   0.00      0      0    129.1   1.59   0.00   0.88    3.35    3.09    2.61    0.76    0.42    0.05      0      0      0       0      26 19.15
 2013 194    53    37   18.0      3   3.17   2505   1024      0    566   3528   3528      0    0.0  0.000      0      0  0.000  0.000  0.000  0.000  0.000  0.000  0.000   2.75   0.00   0.00      0      0    126.7   1.60   0.00   0.90    3.44    3.17    2.67    0.79    0.44    0.07      0      0      0       0      29 20.10
 2013 195    54    38   18.0      3   3.35   2675   1222      0    584   3897   3902      0    0.0  0.000      5      0  0.000  0.000  0.000  0.000  0.000  0.000  0.000   2.71   0.00   0.00      0      5    125.1   1.60   0.00   0.93    3.53    3.25    2.73    0.81    0.46    0.08      0      0      0       0      31 19.75
 2013 196    55    39   19.0      3   3.44   2769   1372      0    595   4141   4150      0    0.0  0.000      9      0  0.000  0.000  0.000  0.000  0.000  0.000  0.000   2.66   0.00   0.00      0      9    124.3   1.60   0.00   0.95    3.59    3.30    2.76    0.82    0.47    0.10      0      0      0       0      34 20.50
 2013 197    56    40   19.0      3   3.52   2859   1534      0    625   4393   4415      0    0.0  0.000     22      0  0.079  0.387  0.000  0.000  0.000  0.000  0.000   2.63   0.00   0.00      0     22    123.0   1.60   0.00   0.98    3.73    3.45    2.86    0.86    0.51    0.13      0      0      0       0      37 20.75
 2013 198    57    41   20.0      3   3.60   2942   1707      0    637   4649   4682      0    0.0  0.000     33      0  0.000  0.000  0.000  0.000  0.000  0.000  0.000   2.58   0.00   0.01      0     33    122.3   1.60   0.00   1.00    3.79    3.51    2.89    0.87    0.52    0.15      0      0      0       0      40 19.40
 2013 199    58    42   20.0      3   3.67   3015   1870      0    648   4885   4932      0    0.0  0.000     47      0  0.000  0.000  0.000  0.000  0.000  0.000  0.000   2.54   0.00   0.01      0     47    121.8   1.60   0.00   1.00    3.83    3.56    2.92    0.88    0.53    0.17      0      0      0       0      44 19.75
 2013 200    59    43   21.0      3   3.77   3113   2085      0    669   5198   5290      0    0.0  0.000     92      0  0.000  0.000  0.000  0.000  0.000  0.000  0.000   2.51   0.00   0.02      0     92    121.0   1.60   0.00   1.00    3.92    3.66    2.98    0.91    0.56    0.19      0      0      0       0      47 18.90
 2013 201    60    44   21.0      3   3.85   3199   2279      0    684   5478   5618      0    0.0  0.000    140      0  0.000  0.000  0.000  0.000  0.000  0.000  0.000   2.47   0.00   0.02      0    140    120.4   1.60   0.00   1.00    3.98    3.73    3.01    0.93    0.57    0.22      0      0      0       0      50 20.60
 2013 202    61    45   22.0      3   3.94   3289   2463      0    709   5752   5980      0    0.0  0.000    228      0  0.000  0.000  0.000  0.000  0.000  0.000  0.000   2.44   0.00   0.04      0    228    119.7   1.60   0.00   1.00    4.00    3.86    3.08    0.96    0.60    0.25      0      0      0       0      54 19.80
[...]
 2014 190    48    32   15.0      3   1.93   1414    290      0    418   1704   1704      0    0.0  0.000      0      0  0.000  0.000  0.000  0.000  0.000  0.000  0.000   2.98   0.00   0.00      0      0    136.7   1.04   0.00   0.77    2.57    2.28    2.14    0.60    0.28    0.01      0      0      0       0      14 19.25
 2014 191    49    33   16.0      3   2.05   1516    362      0    505   1878   1878      0    0.0  0.000      0      0  0.000  0.000  0.000  0.306  0.000  0.000  0.000   2.93   0.00   0.00      0      0    135.2   1.10   0.00   0.79    3.00    2.71    2.56    0.73    0.38    0.02      0      0      0       0      16 19.10
 2014 192    50    34   16.0      3   2.13   1585    419      0    510   2005   2005      0    0.0  0.000      0      0  0.000  0.000  0.000  0.196  0.000  0.000  0.000   2.88   0.00   0.00      0      0    134.2   1.15   0.00   0.82    3.02    2.74    2.58    0.73    0.38    0.03      0      0      0       0      19 20.20
 2014 193    51    35   17.0      3   2.27   1714    541      0    521   2255   2255      0    0.0  0.000      0      0  0.000  0.000  0.000  0.026  0.000  0.000  0.000   2.83   0.00   0.00      0      0    132.4   1.22   0.00   0.84    3.07    2.79    2.63    0.75    0.40    0.03      0      0      0       0      21 20.60
 2014 194    52    36   17.0      3   2.44   1866    703      0    536   2569   2569      0    0.0  0.000      0      0  0.000  0.000  0.000  0.000  0.000  0.000  0.000   2.78   0.00   0.00      0      0    130.5   1.31   0.00   0.86    3.14    2.86    2.70    0.77    0.41    0.04      0      0      0       0      24 19.20
 2014 195    53    37   18.0      3   2.60   2020    838      0    550   2858   2861      0    0.0  0.000      2      0  0.000  0.000  0.000  0.000  0.000  0.000  0.000   2.74   0.00   0.00      0      2    128.7   1.40   0.00   0.88    3.20    2.92    2.76    0.78    0.43    0.05      0      0      0       0      27 19.20
 2014 196    54    38   18.0      3   2.73   2141   1007      0    563   3148   3155      0    0.0  0.000      6      0  0.000  0.000  0.000  0.000  0.000  0.000  0.000   2.70   0.00   0.00      0      6    127.4   1.47   0.00   0.90    3.26    2.98    2.82    0.80    0.44    0.06      0      0      0       0      29 19.25
 2014 197    55    39   19.0      3   2.85   2258   1214      0    579   3473   3487      0    0.0  0.000     15      0  0.000  0.000  0.000  0.000  0.000  0.000  0.000   2.65   0.00   0.00      0     15    126.3   1.54   0.00   0.92    3.34    3.05    2.88    0.82    0.46    0.07      0      0      0       0      32 20.80
 2014 198    56    40   19.0      3   2.96   2363   1424      0    594   3787   3814      0    0.0  0.000     27      0  0.000  0.000  0.000  0.000  0.000  0.000  0.000   2.61   0.00   0.01      0     27    125.3   1.59   0.00   0.94    3.40    3.11    2.95    0.84    0.48    0.09      0      0      0       0      35 19.80
 2014 199    57    41   20.0      3   3.01   2411   1534      0    600   3945   3977      0    0.0  0.000     32      0  0.000  0.000  0.000  0.000  0.000  0.000  0.000   2.56   0.00   0.01      0     32    124.8   1.60   0.00   0.97    3.43    3.13    2.97    0.85    0.49    0.10      0      0      0       0      38 20.30
 2014 200    58    42   20.0      3   3.02   2463   1646      0    655   4109   4168      0    0.0  0.000     59      0  0.248  0.499  0.000  0.000  0.000  0.000  0.000   2.57   0.00   0.01      0     59    122.8   1.60   0.00   0.99    3.68    3.37    3.18    0.92    0.54    0.16      0      0      0       0      41 20.20
 2014 201    59    43   21.0      3   2.99   2498   1718      0    689   4216   4302      0    0.0  0.000     86      0  0.468  0.646  0.000  0.000  0.000  0.000  0.000   2.56   0.00   0.02      0     86    119.6   1.60   0.00   1.00    3.83    3.51    3.32    0.96    0.58    0.20      0      0      0       0      44 20.40
 2014 202    60    44   21.0      3   3.08   2587   1921      0    706   4508   4663      0    0.0  0.000    156      0  0.000  0.000  0.000  0.000  0.000  0.000  0.000   2.47   0.00   0.03      0    156    119.0   1.60   0.00   1.00    3.89    3.58    3.38    0.98    0.60    0.23      0      0      0       0      48 20.35
 2014 203    61    45   21.0      3   3.15   2661   2081      0    719   4742   4963      0    0.0  0.000    221      0  0.000  0.000  0.000  0.000  0.000  0.000  0.000   2.42   0.00   0.04      0    221    118.5   1.60   0.00   1.00    3.95    3.63    3.42    1.00    0.61    0.25      0      0      0       0      51 19.90
 2014 204    62    46   21.0      3   3.10   2690   2102      0    762   4792   5079      0    0.0  0.000    287      0  0.529  0.686  0.000  0.000  0.000  0.000  0.000   2.44   0.00   0.06      0    287    115.2   1.60   0.00   1.00    4.00    3.82    3.58    1.06    0.66    0.30      0      0      0       0      55 20.25
 2014 205    63    47   21.0      3   3.02   2712   2109      0    793   4821   5170      0    0.0  0.000    350      0  0.620  0.747  0.000  0.000  0.000  0.000  0.000   2.43   0.00   0.07      0    350    111.5   1.60   0.00   1.00    4.00    3.94    3.70    1.10    0.69    0.34      0      0      0       0      55 19.90
 2014 206    64    48   21.0      3   2.94   2730   2137      0    818   4867   5245      0    0.0  0.000    378      0  0.689  0.793  0.000  0.000  0.000  0.000  0.000   2.41   0.00   0.07      0    378    107.6   1.60   0.00   1.00    4.00    4.00    3.80    1.14    0.72    0.38      0      0      0       0      55 19.85
 2014 207    65    49   21.0      3   2.86   2751   2137      0    830   4889   5331      0    0.0  0.000    442      0  0.645  0.764  0.000  0.000  0.000  0.000  0.000   2.40   0.00   0.08      0    442    104.1   1.60   0.00   1.00    3.98    4.00    3.85    1.15    0.74    0.40      0      0      0       0      55 19.95
 2014 208    66    50   21.0      4   2.78   2720   2214      0    830   4934   5393      0    0.0  0.000    459      0  0.598  0.733  0.000  0.000  0.000  0.000  0.000   2.37   0.00   0.09      0    459    102.1   1.60   0.00   1.00    3.96    4.00    3.84    1.15    0.74    0.41      0      0      0       0      55 20.40
 2014 209    67    51   21.0      4   2.67   2686   2288      0    829   4975   5442      0    0.0  0.000    467      0  0.786  0.858  0.000  0.000  0.000  0.000  0.000   2.35   0.00   0.09      0    467     99.3   1.60   0.00   1.00    3.94    4.00    3.84    1.15    0.74    0.41      0      0      0       0      55 20.35
 2014 210    68    52   21.0      4   2.60   2650   2346      0    828   4995   5481      0    0.0  0.000    486      0  0.524  0.683  0.000  0.000  0.000  0.000  0.000   2.35   0.00   0.09      0    486     98.1   1.60   0.00   1.00    3.92    3.99    3.83    1.15    0.74    0.41      0      0      0       0      55 19.85
 2014 211    69    53   21.0      4   2.49   2610   2408      0    827   5018   5511      0    0.0  0.000    493      0  0.812  0.875  0.000  0.000  0.000  0.000  0.000   2.33   0.00   0.09      0    493     95.5   1.60   0.00   1.00    3.90    3.98    3.83    1.15    0.74    0.41      0      0      0       0      55 20.00
 2014 212    70    54   21.0      4   2.42   2567   2457      0    826   5024   5531      0    0.0  0.000    507      0  0.579  0.720  0.000  0.000  0.000  0.000  0.000   2.33   0.00   0.09      0    507     94.3   1.60   0.00   1.00    3.88    3.97    3.82    1.15    0.74    0.41      0      0      0       0      55 20.20
 2014 213    71    55   21.0      4   2.32   2522   2510      0    824   5032   5545      0    0.0  0.000    513      0  0.826  0.884  0.000  0.000  0.000  0.000  0.000   2.33   0.00   0.09      0    513     92.0   1.60   0.00   1.00    3.86    3.96    3.80    1.15    0.74    0.42      0      0      0       0      55 19.90
 2014 214    72    56   21.0      4   2.25   2473   2554      0    823   5027   5552      0    0.0  0.000    524      0  0.639  0.760  0.000  0.000  0.000  0.000  0.000   2.33   0.00   0.09      0    524     90.8   1.60   0.00   1.00    3.84    3.94    3.79    1.15    0.74    0.42      0      0      0       0      55 20.40
 2014 215    73    57   21.0      4   2.16   2422   2599      0    821   5021   5552      0    0.0  0.000    532      0  0.756  0.838  0.000  0.000  0.000  0.000  0.000   2.33   0.00   0.10      0    532     89.3   1.60   0.00   1.00    3.82    3.93    3.78    1.15    0.74    0.42      0      0      0       0      55 19.95
 2014 216    74    58   21.0      5   2.07   2422   2599     24    824   5021   5576    875    2.7  0.004    556      6  0.861  0.908  0.000  0.000  0.000  0.000  0.000   2.32   4.32   0.10      0    556     85.4   1.60   0.00   1.00    3.84    3.94    3.79    1.15    0.74    0.43      0      0      0       0      55 20.05
 2014 217    75    59   21.0      5   2.07   2422   2599     69    899   5021   5621    875    7.8  0.012    600      6  0.000  0.000  0.000  0.000  0.000  0.000  0.000   2.31  11.44   0.11      0    600     85.4   1.60   0.00   1.00    4.00    4.00    4.00    1.24    0.81    0.50      0      0      0       0      55 20.20
 2014 218    76    60   21.0      5   2.07   2422   2599    112    958   5021   5665    875   12.8  0.020    644      6  0.000  0.000  0.000  0.000  0.000  0.000  0.000   2.29  17.44   0.11      0    644     85.4   1.60   0.00   1.00    4.00    4.00    4.00    1.31    0.87    0.56      0      0      0       0      55 20.35
 2014 219    77    61   21.0      5   2.07   2422   2599    156    999   5021   5708    875   17.8  0.027    687      6  0.000  0.000  0.000  0.000  0.000  0.000  0.000   2.28  22.65   0.12      0    687     85.4   1.60   0.00   1.00    4.00    4.00    4.00    1.36    0.91    0.60      0      0      0       0      55 20.40
 2014 220    78    62   21.0      5   2.07   2422   2599    202   1060   5021   5755    875   23.1  0.035    734      6  0.000  0.000  0.000  0.000  0.000  0.000  0.000   2.26  27.56   0.13      0    734     85.4   1.60   0.00   1.00    4.00    4.00    4.00    1.45    0.97    0.65      0      0      0       0      55 19.90
 2014 221    79    63   21.0      5   2.07   2422   2599    253   1112   5021   5805    875   28.9  0.044    785      6  0.000  0.000  0.000  0.366  0.000  0.000  0.000   2.24  32.26   0.14      0    785     85.4   1.60   0.00   1.00    4.00    4.00    4.00    1.52    1.01    0.69      0      0      0       0      55 19.25
 2014 222    80    64   21.0      5   2.07   2422   2599    305   1156   5021   5857    875   34.8  0.052    836      6  0.000  0.000  0.000  0.420  0.000  0.000  0.000   2.23  36.43   0.14      0    836     85.4   1.60   0.00   1.00    4.00    4.00    4.00    1.59    1.06    0.72      0      0      0       0      55 19.15
 2014 223    81    65   21.0      5   2.07   2422   2599    350   1228   5021   5902    875   40.0  0.059    882      6  0.000  0.000  0.000  0.388  0.000  0.000  0.000   2.21  39.70   0.15      0    882     85.4   1.60   0.00   1.00    4.00    4.00    4.00    1.70    1.13    0.78      0      0      0       0      55 20.10
 2014 224    82    66   21.0      5   2.07   2422   2599    394   1298   5021   5946    875   45.0  0.066    926      6  0.000  0.000  0.000  0.374  0.000  0.000  0.000   2.19  42.56   0.16      0    926     85.4   1.60   0.00   1.00    4.00    4.00    4.00    1.81    1.20    0.83      0      0      0       0      55 20.30
 2014 225    83    67   21.0      5   2.07   2422   2599    437   1350   5021   5989    875   49.9  0.073    968      6  0.000  0.000  0.000  0.325  0.000  0.000  0.000   2.18  45.09   0.16      0    968     85.4   1.60   0.00   1.00    4.00    4.00    4.00    1.90    1.26    0.86      0      0      0       0      55 20.50
 2014 226    84    68   21.0      5   2.07   2422   2599    484   1396   5021   6036    875   55.3  0.080   1015      6  0.000  0.000  0.000  0.156  0.000  0.000  0.000   2.16  47.65   0.17      0   1015     85.4   1.60   0.00   1.00    4.00    4.00    4.00    1.97    1.31    0.89      0      0      0       0      55 19.80
 2014 227    85    69   21.0      5   2.07   2422   2599    528   1475   5021   6081    875   60.3  0.087   1060      6  0.000  0.000  0.000  0.001  0.000  0.000  0.000   2.15  49.84   0.17      0   1060     85.4   1.60   0.00   1.00    4.00    4.00    4.00    2.10    1.40    0.94      0      0      0       0      55 20.25
 2014 228    86    70   21.0      5   2.07   2422   2599    572   1541   5021   6124    875   65.3  0.093   1103      6  0.000  0.000  0.000  0.000  0.000  0.000  0.000   2.13  51.82   0.18      0   1103     85.4   1.60   0.00   1.00    4.00    4.00    4.00    2.20    1.48    0.98      0      0      0       0      55 20.35
 2014 229    87    71   21.0      5   2.07   2422   2599    608   1610   5021   6160    875   69.5  0.099   1140      6  0.000  0.000  0.000  0.000  0.000  0.000  0.000   2.12  53.35   0.18      0   1140     85.4   1.60   0.00   1.00    4.00    4.00    4.00    2.32    1.57    1.01      0      0      0       0      55 21.37
 2014 230    88    72   21.0      5   2.07   2422   2599    651   1638   5021   6203    875   74.3  0.105   1182      6  0.000  0.000  0.000  0.000  0.000  0.000  0.000   2.10  55.03   0.19      0   1182     85.4   1.60   0.00   1.00    4.00    4.00    4.00    2.36    1.60    1.03      0      0      0       0      55 20.50
 2014 231    89    73   21.0      5   2.07   2422   2599    678   1658   5021   6230    875   77.4  0.109   1209      6  0.000  0.000  0.000  0.175  0.000  0.000  0.000   2.09  56.03   0.19      0   1209     85.4   1.60   0.00   1.00    4.00    4.00    4.00    2.39    1.62    1.04      0      0      0       0      55 22.46
 2014 232    90    74   21.0      5   2.07   2422   2599    722   1721   5021   6274    875   82.5  0.115   1253      6  0.000  0.000  0.000  0.159  0.000  0.000  0.000   2.08  57.59   0.20      0   1253     85.4   1.60   0.00   1.00    4.00    4.00    4.00    2.49    1.70    1.09      0      0      0       0      55 20.25
 2014 233    91    75   21.0      5   2.07   2422   2599    768   1775   5021   6321    875   87.8  0.122   1300      6  0.000  0.000  0.000  0.069  0.000  0.000  0.000   2.06  59.11   0.21      0   1300     85.4   1.60   0.00   1.00    4.00    4.00    4.00    2.58    1.77    1.14      0      0      0       0      55 19.90
 2014 234    92    76   21.0      5   2.07   2422   2599    811   1823   5021   6363    875   92.7  0.127   1343      6  0.000  0.000  0.000  0.173  0.000  0.000  0.000   2.05  60.41   0.21      0   1343     85.4   1.60   0.00   1.00    4.00    4.00    4.00    2.65    1.83    1.19      0      0      0       0      55 20.50
 2014 235    93    77   21.0      5   2.07   2422   2599    858   1863   5021   6411    875   98.1  0.134   1390      6  0.000  0.000  0.000  0.191  0.000  0.000  0.000   2.03  61.76   0.22      0   1390     85.4   1.60   0.00   1.00    4.00    4.00    4.00    2.71    1.88    1.23      0      0      0       0      55 19.80
 2014 236    94    78   21.0      5   2.07   2422   2599    901   1914   5021   6454    875  103.0  0.140   1433      6  0.000  0.000  0.000  0.199  0.000  0.000  0.000   2.01  62.90   0.22      0   1433     85.4   1.60   0.00   1.00    4.00    4.00    4.00    2.80    1.94    1.29      0      0      0       0      55 20.45
 2014 237    95    79   21.0      5   2.07   2422   2599    948   1952   5021   6500    875  108.3  0.146   1480      6  0.000  0.000  0.000  0.139  0.000  0.000  0.000   2.00  64.07   0.23      0   1480     85.4   1.60   0.00   1.00    4.00    4.00    4.00    2.86    1.99    1.34      0      0      0       0      55 19.90
 2014 238    96    80   21.0      5   2.07   2422   2599   1001   1978   5021   6553    875  114.3  0.153   1532      6  0.000  0.000  0.000  0.063  0.000  0.000  0.000   1.98  65.30   0.23      0   1532     85.4   1.60   0.00   1.00    4.00    4.00    4.00    2.90    2.02    1.37      0      0      0       0      55 18.15
 2014 239    97    81   21.0      5   2.07   2422   2599   1042   2029   5021   6594    875  119.0  0.158   1573      6  0.000  0.000  0.000  0.012  0.000  0.000  0.000   1.97  66.21   0.24      0   1573     85.4   1.60   0.00   1.00    4.00    4.00    4.00    2.98    2.08    1.43      0      0      0       0      55 20.70
 2014 240    98    82   21.0      5   2.07   2422   2599   1089   2090   5021   6642    875  124.5  0.164   1621      6  0.000  0.000  0.000  0.000  0.000  0.000  0.000   1.95  67.21   0.24      0   1621     85.4   1.60   0.00   1.00    4.00    4.00    4.00    3.08    2.16    1.50      0      0      0       0      55 19.75
 2014 241    99    83   21.0      5   2.03   2422   2599   1136   2155   5021   6688    875  129.8  0.170   1668      6  0.000  0.000  0.000  0.000  0.000  0.000  0.000   1.93  68.12   0.25      0   1668     83.9   1.60   0.00   1.00    4.00    4.00    4.00    3.18    2.24    1.58      0      0      0       0      55 19.90
 2014 242   100    84   21.0      5   1.94   2422   2599   1181   2223   5021   6734    875  135.0  0.175   1713      6  0.000  0.000  0.000  0.000  0.000  0.000  0.000   1.92  68.97   0.25      0   1713     79.9   1.60   0.00   1.00    4.00    4.00    4.00    3.28    2.33    1.66      0      0      0       0      55 20.10
 2014 243   101    85   21.0      5   1.84   2422   2599   1231   2282   5021   6783    875  140.6  0.181   1763      6  0.000  0.000  0.000  0.000  0.000  0.000  0.000   1.90  69.84   0.26      0   1763     75.8   1.60   0.00   1.00    4.00    4.00    4.00    3.37    2.40    1.73      0      0      0       0      55 19.45
 2014 244   102    86   21.0      5   1.73   2422   2599   1276   2340   5021   6828    875  145.8  0.187   1808      6  0.000  0.000  0.000  0.000  0.000  0.000  0.000   1.88  70.59   0.26      0   1808     71.3   1.60   0.00   1.00    4.00    4.00    4.00    3.46    2.47    1.79      0      0      0       0      55 20.15
 2014 245   103    87   21.0      5   1.61   2422   2599   1321   2350   5021   6873    875  150.9  0.192   1852      6  0.000  0.000  0.000  0.007  0.000  0.000  0.000   1.87  71.30   0.27      0   1852     66.6   1.60   0.00   1.00    4.00    4.00    4.00    3.48    2.49    1.81      0      0      0       0      55 20.20
 2014 246   104    88   21.0      5   1.49   2422   2599   1366   2391   5021   6919    875  156.1  0.197   1898      6  0.000  0.000  0.000  0.000  0.000  0.000  0.000   1.85  71.99   0.27      0   1898     61.6   1.60   0.00   1.00    4.00    4.00    4.00    3.54    2.54    1.86      0      0      0       0      55 20.05
 2014 247   105    89   21.0      5   1.36   2422   2599   1407   2411   5021   6959    875  160.7  0.202   1939      6  0.000  0.000  0.000  0.000  0.000  0.000  0.000   1.84  72.58   0.28      0   1939     56.2   1.60   0.00   1.00    4.00    4.00    4.00    3.57    2.57    1.88      0      0      0       0      55 20.79
 2014 248   106    90   21.0      5   1.36   2422   2599   1407   2411   5021   6959    875  160.7  0.202   1939      6  0.000  0.000  0.000  0.000  0.000  0.000  0.000   1.84  72.58   0.28      0   1939     56.2   1.60   0.00   1.00    4.00    4.00    4.00    3.61    2.59    1.91      0      0      0       0      55 20.55
 2014 249   107    91   21.0      5   1.36   2422   2599   1407   2411   5021   6959    875  160.7  0.202   1939      6  0.000  0.000  0.000  0.099  0.000  0.000  0.000   1.84  72.58   0.28      0   1939     56.2   1.60   0.00   1.00    4.00    4.00    4.00    3.64    2.62    1.94      0      0      0       0      55 19.90
 2014 250   108    92   21.0      5   1.36   2422   2599   1407   2411   5021   6959    875  160.7  0.202   1939      6  0.000  0.000  0.000  0.099  0.000  0.000  0.000   1.84  72.58   0.28      0   1939     56.2   1.60   0.00   1.00    4.00    4.00    4.00    3.67    2.65    1.96      0      0      0       0      55  0.00
