*GROWTH ASPECTS OUTPUT FILE

*DSSAT Cropping System Model Ver. 4.6.1.000 -release      AUG 23, 2017; 14:09:35
                                                                                
*RUN   1        : P1                        MZCER046 2\000002    1              
 MODEL          : MZCER046 - Maize                                              
 EXPERIMENT     : 2\000002 BN Calibracion Cerete 2013                           
 DATA PATH      : C:\L\0\00000                                                  
 TREATMENT  1   : P1                        MZCER046                            
  
!                                                                                                                                                                                                                                      Root Dens. (cm/cm3) by soil depth (cm):
!                                                                                                                                                                                                                                      0-5    5-15   15-30   30-53   53-77  77-100
@YEAR DOY   DAS   DAP   L#SD   GSTD   LAID   LWAD   SWAD   GWAD   RWAD   VWAD   CWAD   G#AD   GWGD   HIAD   PWAD   P#AD   WSPD   WSGD   NSTD   EWSD  PST1A  PST2A   KSTD   LN%D   SH%D   HIPD   PWDD   PWTD     SLAD   CHTD   CWID   RDPD    RL1D    RL2D    RL3D    RL4D    RL5D    RL6D   CDAD   LDAD   SDAD   SNW0C   SNW1C  DTTD
 2013 105     1     0    0.0      0   0.00      0      0      0      0      0      0      0    0.0  0.000      0      0  0.000  0.000  0.000  0.000  0.000  0.000  0.000   0.00   0.00   0.00      0      0      0.0   0.00   0.00   0.05    0.00    0.00    0.00    0.00    0.00    0.00      0      0      0       0       0 20.95
 2013 106     2     1    0.0      0   0.00      0      0      0      0      0      0      0    0.0  0.000      0      0  0.000  0.000  0.000  0.000  0.000  0.000  0.000   0.00   0.00   0.00      0      0      0.0   0.00   0.00   0.08    0.00    0.00    0.00    0.00    0.00    0.00      0      0      0       0       0 22.14
 2013 107     3     2    0.0      0   0.00      0      0      0      0      0      0      0    0.0  0.000      0      0  0.000  0.000  0.000  0.000  0.000  0.000  0.000   0.00   0.00   0.00      0      0      0.0   0.00   0.00   0.12    0.00    0.00    0.00    0.00    0.00    0.00      0      0      0       0       0 22.43
 2013 108     4     3    0.0      0   0.00      0      0      0      0      0      0      0    0.0  0.000      0      0  0.000  0.000  0.000  0.000  0.000  0.000  0.000   0.00   0.00   0.00      0      0      0.0   0.00   0.00   0.15    0.00    0.00    0.00    0.00    0.00    0.00      0      0      0       0       0 21.50
 2013 109     5     4    0.0      0   0.00      0      0      0      0      0      0      0    0.0  0.000      0      0  0.000  0.000  0.000  0.000  0.000  0.000  0.000   0.00   0.00   0.00      0      0      0.0   0.00   0.00   0.18    0.00    0.00    0.00    0.00    0.00    0.00      0      0      0       0       0 17.84
 2013 110     6     5    2.0      1   0.00     12     12      0     12     25     25      0    0.0  0.000      0      0  0.000  0.000  0.012  0.000  0.000  0.000  0.000   4.40   0.00   0.00      0      0     31.9   0.00   0.00   0.20    0.25    0.12    0.01    0.00    0.00    0.00      0      0      0       0       0 19.69
 2013 111     7     6    2.0      1   0.01     12     12      0     13     25     25      0    0.0  0.000      0      0  0.000  0.000  0.009  0.000  0.000  0.000  0.000   4.40   0.00   0.00      0      0     59.5   0.00   0.00   0.21    0.25    0.13    0.01    0.00    0.00    0.00      0      0      0       0       0 17.24
 2013 112     8     7    3.0      1   0.01     12     12      0     13     25     25      0    0.0  0.000      0      0  0.000  0.000  0.000  0.000  0.000  0.000  0.000   4.40   0.00   0.00      0      0     96.2   0.01   0.00   0.23    0.26    0.13    0.02    0.00    0.00    0.00      0      0      0       0       0 19.74
 2013 113     9     8    3.0      1   0.02     12     12      0     14     25     25      0    0.0  0.000      0      0  0.000  0.000  0.000  0.000  0.000  0.000  0.000   4.40   0.00   0.00      0      0    134.1   0.01   0.00   0.25    0.27    0.14    0.02    0.00    0.00    0.00      0      0      0       0       0 18.50
 2013 114    10     9    4.0      1   0.04     12     12      0     17     25     25      0    0.0  0.000      0      0  0.000  0.000  0.000  0.000  0.000  0.000  0.000   4.40   0.00   0.00      0      0    282.7   0.02   0.00   0.27    0.29    0.16    0.03    0.00    0.00    0.00      0      0      0       0       0 20.61
 2013 115    11    10    4.0      1   0.06     18     12      0     19     30     30      0    0.0  0.000      0      0  0.000  0.000  0.000  0.000  0.000  0.000  0.000   3.60   0.00   0.00      0      0    318.7   0.03   0.00   0.29    0.31    0.18    0.04    0.00    0.00    0.00      0      0      0       0       0 20.85
 2013 116    12    11    5.0      1   0.08     29     12      0     22     42     42      0    0.0  0.000      0      0  0.000  0.000  0.000  0.000  0.000  0.000  0.000   2.96   0.00   0.00      0      0    288.4   0.05   0.00   0.31    0.34    0.20    0.05    0.00    0.00    0.00      0      0      0       0       0 21.66
 2013 117    13    12    5.0      1   0.11     43     12      0     28     55     55      0    0.0  0.000      0      0  0.000  0.000  0.000  0.000  0.000  0.000  0.000   2.99   0.00   0.00      0      0    266.6   0.06   0.00   0.33    0.39    0.24    0.08    0.00    0.00    0.00      0      0      0       0       0 21.04
 2013 118    14    13    6.0      1   0.15     59     12      0     34     71     71      0    0.0  0.000      0      0  0.000  0.000  0.000  0.000  0.000  0.000  0.000   3.02   0.00   0.00      0      0    249.6   0.08   0.00   0.34    0.43    0.29    0.11    0.00    0.00    0.00      0      0      0       0       0 20.51
 2013 119    15    14    6.0      2   0.19     73     12      0     39     86     86      0    0.0  0.000      0      0  0.000  0.000  0.000  0.000  0.000  0.000  0.000   3.20   0.00   0.00      0      0    255.1   0.10   0.00   0.35    0.43    0.35    0.14    0.00    0.00    0.00      0      0      0       0       1 18.72
 2013 120    16    15    7.0      2   0.24     99     12      0     53    111    111      0    0.0  0.000      0      0  0.000  0.000  0.008  0.000  0.000  0.000  0.000   3.01   0.00   0.00      0      0    240.0   0.13   0.00   0.37    0.43    0.48    0.22    0.00    0.00    0.00      0      0      0       0       1 21.05
 2013 121    17    16    7.0      2   0.29    125     12      0     61    138    138      0    0.0  0.000      0      0  0.000  0.000  0.000  0.000  0.000  0.000  0.000   3.10   0.00   0.00      0      0    228.4   0.15   0.00   0.39    0.47    0.54    0.28    0.01    0.00    0.00      0      0      0       0       1 18.42
 2013 122    18    17    8.0      2   0.35    162     12      0     79    174    174      0    0.0  0.000      0      0  0.000  0.000  0.000  0.000  0.000  0.000  0.000   2.99   0.00   0.00      0      0    216.5   0.19   0.00   0.41    0.57    0.66    0.38    0.02    0.00    0.00      0      0      0       0       1 21.54
 2013 123    19    18    8.0      2   0.41    196     12      0     85    209    209      0    0.0  0.000      0      0  0.000  0.000  0.000  0.000  0.000  0.000  0.000   3.78   0.00   0.00      0      0    208.0   0.22   0.00   0.43    0.60    0.69    0.42    0.02    0.00    0.00      0      0      0       0       2 17.34
 2013 124    20    19    8.0      2   0.48    243     12      0    114    256    256      0    0.0  0.000      0      0  0.000  0.000  0.000  0.000  0.000  0.000  0.000   3.74   0.00   0.00      0      0    198.9   0.26   0.00   0.45    0.74    0.81    0.61    0.06    0.00    0.00      0      0      0       0       2 20.68
 2013 125    21    20    9.0      2   0.55    289     12      0    123    301    301      0    0.0  0.000      0      0  0.000  0.000  0.000  0.000  0.000  0.000  0.000   3.69   0.00   0.00      0      0    191.9   0.30   0.00   0.47    0.77    0.85    0.67    0.08    0.00    0.00      0      0      0       0       3 17.55
 2013 126    22    21    9.0      3   0.64    347     13      0    144    359    359      0    0.0  0.000      0      0  0.000  0.000  0.000  0.000  0.000  0.000  0.000   3.61   0.00   0.00      0      0    184.3   0.34   0.00   0.49    0.86    0.93    0.80    0.11    0.00    0.00      0      0      0       0       3 20.01
 2013 127    23    22   10.0      3   0.71    397     13      0    146    410    410      0    0.0  0.000      0      0  0.000  0.000  0.000  0.000  0.000  0.000  0.000   3.55   0.00   0.00      0      0    179.9   0.38   0.00   0.50    0.87    0.94    0.81    0.12    0.00    0.00      0      0      0       0       4 15.70
 2013 128    24    23   10.0      3   0.81    467     15      0    175    482    482      0    0.0  0.000      0      0  0.000  0.000  0.000  0.000  0.000  0.000  0.000   3.49   0.00   0.00      0      0    174.7   0.44   0.00   0.52    0.99    1.04    0.98    0.18    0.00    0.00      0      0      0       0       5 19.24
 2013 129    25    24   10.0      3   0.92    542     19      0    188    561    561      0    0.0  0.000      0      0  0.000  0.000  0.000  0.000  0.000  0.000  0.000   3.44   0.00   0.00      0      0    169.9   0.50   0.00   0.54    1.05    1.09    1.05    0.21    0.00    0.00      0      0      0       0       6 18.75
 2013 130    26    25   11.0      3   1.05    633     26      0    238    659    659      0    0.0  0.000      0      0  0.000  0.000  0.000  0.000  0.000  0.000  0.000   3.38   0.00   0.00      0      0    165.1   0.56   0.00   0.57    1.87    1.18    1.21    0.30    0.01    0.00      0      0      0       0       7 20.19
 2013 131    27    26   11.0      3   1.18    732     38      0    262    770    770      0    0.0  0.000      0      0  0.000  0.000  0.000  0.000  0.000  0.000  0.000   3.32   0.00   0.00      0      0    160.6   0.63   0.00   0.59    2.31    1.18    1.28    0.35    0.03    0.00      0      0      0       0       8 19.80
 2013 132    28    27   12.0      3   1.34    857     58      0    293    914    914      0    0.0  0.000      0      0  0.000  0.000  0.000  0.000  0.000  0.000  0.000   3.27   0.00   0.00      0      0    155.9   0.72   0.00   0.61    2.69    1.42    1.32    0.38    0.04    0.00      0      0      0       0       9 19.80
 2013 133    29    28   12.0      3   1.49    978     83      0    304   1061   1061      0    0.0  0.000      0      0  0.000  0.000  0.000  0.000  0.000  0.000  0.000   3.22   0.00   0.00      0      0    152.1   0.80   0.00   0.63    2.79    1.51    1.34    0.39    0.04    0.00      0      0      0       0      11 18.70
 2013 134    30    29   13.0      3   1.65   1112    118      0    330   1230   1230      0    0.0  0.000      0      0  0.000  0.000  0.000  0.000  0.000  0.000  0.000   3.16   0.00   0.00      0      0    148.4   0.89   0.00   0.65    3.03    1.73    1.42    0.41    0.06    0.00      0      0      0       0      12 20.05
 2013 135    31    30   13.0      3   1.78   1223    155      0    337   1378   1378      0    0.0  0.000      0      0  0.000  0.000  0.000  0.000  0.000  0.000  0.000   3.12   0.00   0.00      0      0    145.7   0.96   0.00   0.67    3.07    1.77    1.45    0.41    0.06    0.00      0      0      0       0      14 17.55
 2013 136    32    31   13.0      3   1.94   1361    209      0    368   1571   1571      0    0.0  0.000      0      0  0.000  0.000  0.000  0.000  0.000  0.000  0.000   3.07   0.00   0.00      0      0    142.7   1.05   0.00   0.69    3.25    1.98    1.58    0.43    0.08    0.00      0      0      0       0      15 19.85
 2013 137    33    32   14.0      3   2.03   1441    246      0    373   1687   1687      0    0.0  0.000      0      0  0.000  0.000  0.000  0.000  0.000  0.000  0.000   3.02   0.00   0.00      0      0    141.1   1.10   0.00   0.70    3.26    2.01    1.61    0.44    0.08    0.00      0      0      0       0      17 17.05
 2013 138    34    33   14.0      3   2.19   1578    321      0    445   1900   1900      0    0.0  0.000      0      0  0.000  0.000  0.000  0.000  0.000  0.000  0.000   2.97   0.00   0.00      0      0    138.7   1.18   0.00   0.72    3.56    2.45    1.95    0.50    0.14    0.00      0      0      0       0      19 19.10
 2013 139    35    34   15.0      3   2.30   1678    384      0    451   2062   2062      0    0.0  0.000      0      0  0.000  0.000  0.000  0.000  0.000  0.000  0.000   2.93   0.00   0.00      0      0    137.0   1.24   0.00   0.74    3.58    2.50    1.99    0.51    0.15    0.00      0      0      0       0      21 17.35
 2013 140    36    35   15.0      3   2.45   1813    480      0    514   2293   2293      0    0.0  0.000      0      0  0.000  0.000  0.000  0.000  0.000  0.000  0.000   2.89   0.00   0.00      0      0    135.0   1.32   0.00   0.76    3.86    2.86    2.27    0.57    0.21    0.00      0      0      0       0      24 18.20
 2013 141    37    36   15.0      3   2.56   1917    563      0    522   2481   2481      0    0.0  0.000      0      0  0.000  0.000  0.000  0.000  0.000  0.000  0.000   2.84   0.00   0.00      0      0    133.5   1.38   0.00   0.78    3.86    2.90    2.31    0.58    0.22    0.00      0      0      0       0      26 17.30
 2013 142    38    37   16.0      3   2.78   2119    630      0    535   2749   2749      0    0.0  0.000      0      0  0.000  0.000  0.000  0.000  0.000  0.000  0.000   2.80   0.00   0.00      0      0    131.0   1.50   0.00   0.80    3.86    2.96    2.37    0.60    0.24    0.00      0      0      0       0      29 19.10
 2013 143    39    38   16.0      3   2.90   2236    753      0    545   2989   2989      0    0.0  0.000      0      0  0.000  0.000  0.000  0.000  0.000  0.000  0.000   2.76   0.00   0.00      0      0    129.6   1.56   0.00   0.82    3.84    2.96    2.42    0.62    0.27    0.01      0      0      0       0      31 16.45
 2013 144    40    39   17.0      3   3.00   2334    894      0    556   3228   3231      0    0.0  0.000      3      0  0.000  0.000  0.000  0.000  0.000  0.000  0.000   2.70   0.00   0.00      0      3    128.5   1.60   0.00   0.84    3.83    2.95    2.44    0.65    0.31    0.03      0      0      0       0      34 18.00
 2013 145    41    40   17.0      3   3.12   2455   1103      0    572   3558   3568      0    0.0  0.000     10      0  0.000  0.000  0.000  0.000  0.000  0.000  0.000   2.56   0.00   0.00      0     10    127.3   1.60   0.00   0.86    3.82    2.95    2.43    0.69    0.37    0.06      0      0      0       0      37 18.90
 2013 146    42    41   17.0      3   3.20   2528   1245      0    581   3773   3788      0    0.0  0.000     15      0  0.000  0.000  0.000  0.000  0.000  0.000  0.000   2.49   0.00   0.00      0     15    126.5   1.60   0.00   0.87    3.81    2.94    2.43    0.71    0.41    0.10      0      0      0       0      40 16.75
 2013 147    43    42   18.0      3   3.30   2624   1451      0    596   4076   4105      0    0.0  0.000     29      0  0.000  0.000  0.000  0.000  0.000  0.000  0.000   2.36   0.00   0.01      0     29    125.6   1.60   0.00   0.89    3.81    2.94    2.43    0.72    0.45    0.16      0      0      0       0      43 19.20
 2013 148    44    43   18.0      3   3.38   2705   1635      0    609   4340   4386      0    0.0  0.000     45      0  0.000  0.000  0.000  0.000  0.000  0.000  0.000   2.27   0.00   0.01      0     45    124.9   1.60   0.00   0.91    3.80    2.94    2.44    0.72    0.48    0.23      0      0      0       0      46 19.15
 2013 149    45    44   19.0      3   3.45   2787   1822      0    638   4610   4688      0    0.0  0.000     78      0  0.000  0.000  0.019  0.000  0.000  0.000  0.000   2.18   0.00   0.02      0     78    123.8   1.60   0.00   0.93    3.83    2.97    2.47    0.73    0.52    0.39      0      0      0       0      49 18.00
 2013 150    46    45   19.0      3   3.51   2858   1988      0    650   4845   4956      0    0.0  0.000    111      0  0.000  0.000  0.033  0.000  0.000  0.000  0.000   2.30   0.00   0.02      0    111    122.7   1.60   0.00   0.95    4.00    2.96    2.46    0.72    0.52    0.40      0      0      0       0      52 18.30
 2013 151    47    46   19.0      3   3.58   2931   2157      0    663   5089   5250      0    0.0  0.000    161      0  0.000  0.000  0.004  0.000  0.000  0.000  0.000   2.45   0.00   0.03      0    161    122.1   1.60   0.00   0.97    4.00    2.95    2.45    0.72    0.52    0.41      0      0      0       0      55 18.60
 2013 152    48    47   19.0      3   3.66   3012   2312      0    694   5324   5571      0    0.0  0.000    247      0  0.000  0.000  0.000  0.000  0.000  0.000  0.000   2.44   0.00   0.04      0    247    121.4   1.60   0.00   0.99    4.00    2.95    2.45    0.72    0.52    0.44      0      0      0       0      58 18.75
 2013 153    49    48   19.0      3   3.73   3091   2433      0    733   5524   5883      0    0.0  0.000    359      0  0.000  0.000  0.000  0.000  0.000  0.000  0.000   2.41   0.00   0.06      0    359    120.8   1.60   0.00   1.00    4.00    3.14    2.45    0.72    0.52    0.45      0      0      0       0      62 18.20
 2013 154    50    49   19.0      3   3.81   3163   2544      0    745   5706   6167      0    0.0  0.000    460      0  0.000  0.000  0.000  0.000  0.000  0.000  0.000   2.37   0.00   0.07      0    460    120.3   1.60   0.00   1.00    4.00    3.24    2.44    0.72    0.52    0.46      0      0      0       0      66 18.05
 2013 155    51    50   19.0      3   3.88   3243   2621      0    769   5864   6481      0    0.0  0.000    618      0  0.000  0.000  0.000  0.000  0.000  0.000  0.000   2.35   0.00   0.10      0    618    119.7   1.60   0.00   1.00    4.00    3.43    2.44    0.71    0.52    0.46      0      0      0       0      69 18.30
 2013 156    52    51   19.0      3   3.96   3324   2648      0    816   5971   6799      0    0.0  0.000    828      0  0.000  0.000  0.000  0.000  0.000  0.000  0.000   2.34   0.00   0.12      0    828    119.2   1.60   0.00   1.00    4.00    3.82    2.43    0.71    0.52    0.47      0      0      0       0      73 18.50
 2013 157    53    52   19.0      4   3.80   3290   2758      0    825   6049   7052      0    0.0  0.000   1003      0  0.000  0.000  0.000  0.000  0.000  0.000  0.000   2.31   0.00   0.14      0   1003    115.5   1.60   0.00   1.00    4.00    3.90    2.42    0.71    0.51    0.47      0      0      0       0      73 17.90
 2013 158    54    53   19.0      4   3.78   3254   2873      0    836   6127   7368      0    0.0  0.000   1241      0  0.000  0.000  0.000  0.000  0.000  0.000  0.000   2.28   0.00   0.17      0   1241    116.3   1.60   0.00   1.00    4.00    4.00    2.41    0.71    0.51    0.47      0      0      0       0      73 18.05
 2013 159    55    54   19.0      4   3.77   3214   2972      0    848   6186   7689      0    0.0  0.000   1503      0  0.000  0.000  0.000  0.000  0.000  0.000  0.000   2.25   0.00   0.20      0   1503    117.2   1.60   0.00   1.00    4.00    4.00    2.41    0.70    0.51    0.48      0      0      0       0      73 17.95
 2013 160    56    55   19.0      4   3.75   3171   3056      0    859   6227   8009      0    0.0  0.000   1782      0  0.000  0.000  0.000  0.000  0.000  0.000  0.000   2.24   0.00   0.22      0   1782    118.1   1.60   0.00   1.00    4.00    4.00    2.40    0.70    0.51    0.48      0      0      0       0      73 19.00
 2013 161    57    56   19.0      4   3.73   3125   3111      0    867   6236   8238      0    0.0  0.000   2002      0  0.000  0.000  0.000  0.000  0.000  0.000  0.000   2.24   0.00   0.24      0   2002    119.3   1.60   0.00   1.00    4.00    4.00    2.39    0.70    0.51    0.48      0      0      0       0      73 18.50
 2013 162    58    57   19.0      4   3.71   3077   3161      0    875   6238   8473      0    0.0  0.000   2235      0  0.000  0.000  0.000  0.000  0.000  0.000  0.000   2.24   0.00   0.26      0   2235    120.6   1.60   0.00   1.00    3.98    4.00    2.38    0.69    0.50    0.49      0      0      0       0      73 18.25
 2013 163    59    58   19.0      4   3.69   3025   3318      0    884   6342   8744      0    0.0  0.000   2402      0  0.078  0.386  0.000  0.000  0.000  0.000  0.000   2.20   0.00   0.27      0   2402    122.0   1.60   0.00   1.00    4.00    4.00    2.37    0.69    0.50    0.49      0      0      0       0      73 18.60
 2013 164    60    59   19.0      4   3.67   2969   3372      0    896   6342   9060      0    0.0  0.000   2719      0  0.000  0.000  0.000  0.000  0.000  0.000  0.000   2.20   0.00   0.30      0   2719    123.6   1.60   0.00   1.00    4.00    4.00    2.37    0.69    0.50    0.49      0      0      0       0      73 19.80
 2013 165    61    60   19.0      4   3.59   2911   3511      0    900   6422   9202      0    0.0  0.000   2780      0  0.463  0.643  0.000  0.000  0.000  0.000  0.000   2.17   0.00   0.30      0   2780    123.2   1.60   0.00   1.00    4.00    4.00    2.36    0.69    0.50    0.49      0      0      0       0      73 19.25
 2013 166    62    61   19.0      5   3.49   2911   3511    119    908   6422   9320   2718    4.4  0.013   2899      6  0.533  0.689  0.000  0.000  0.000  0.000  0.000   2.14   4.09   0.31      0   2899    119.9   1.60   0.00   1.00    3.98    4.00    2.35    0.68    0.50    0.50      0      0      0       0      73 19.40
 2013 167    63    62   19.0      5   3.37   2911   3511    210    914   6422   9412   2718    7.7  0.022   2990      6  0.670  0.781  0.000  0.000  0.000  0.000  0.000   2.11   7.02   0.32      0   2990    115.9   1.60   0.00   1.00    3.96    4.00    2.35    0.68    0.50    0.51      0      0      0       0      73 20.45
 2013 168    64    63   19.0      5   3.26   2911   3511    301    915   6422   9503   2718   11.1  0.032   3081      6  0.680  0.787  0.000  0.000  0.000  0.000  0.000   2.08   9.78   0.32      0   3081    112.0   1.60   0.00   1.00    3.94    4.00    2.34    0.68    0.50    0.51      0      0      0       0      73 20.40
 2013 169    65    64   19.0      5   3.14   2911   3511    394    912   6422   9596   2718   14.5  0.041   3174      6  0.732  0.822  0.000  0.000  0.000  0.000  0.000   2.06  12.42   0.33      0   3174    107.9   1.60   0.00   1.00    3.92    4.00    2.33    0.68    0.49    0.52      0      0      0       0      73 19.95
 2013 170    66    65   19.0      5   3.03   2911   3498    495    908   6409   9685   2718   18.2  0.051   3276      6  0.685  0.791  0.000  0.000  0.000  0.000  0.000   2.03  15.13   0.34      0   3276    104.2   1.60   0.00   1.00    3.92    4.00    2.33    0.68    0.49    0.52      0      0      0       0      73 19.65
 2013 171    67    66   19.0      5   2.91   2911   3483    583    903   6394   9757   2718   21.4  0.060   3363      6  0.804  0.870  0.000  0.000  0.000  0.000  0.000   2.01  17.33   0.34      0   3363    100.0   1.60   0.00   1.00    3.92    4.00    2.33    0.68    0.49    0.52      0      0      0       0      73 19.90
 2013 172    68    67   19.0      5   2.79   2911   3456    676    899   6367   9823   2718   24.9  0.069   3456      6  0.829  0.887  0.000  0.000  0.000  0.000  0.000   1.99  19.56   0.35      0   3456     95.8   1.60   0.00   1.00    3.92    4.00    2.33    0.68    0.49    0.52      0      0      0       0      73 19.25
 2013 173    69    68   19.0      5   2.68   2911   3427    764    894   6338   9883   2718   28.1  0.077   3544      6  0.810  0.874  0.000  0.000  0.000  0.000  0.000   1.98  21.56   0.36      0   3544     91.9   1.60   0.00   1.00    3.92    4.00    2.33    0.68    0.49    0.52      0      0      0       0      73 19.80
 2013 174    70    69   19.0      5   2.57   2911   3397    850    890   6308   9937   2718   31.3  0.086   3630      6  0.804  0.870  0.000  0.000  0.000  0.000  0.000   1.96  23.41   0.37      0   3630     88.3   1.60   0.00   1.00    3.92    4.00    2.33    0.68    0.49    0.52      0      0      0       0      73 20.05
 2013 175    71    70   19.0      5   2.46   2911   3363    935    885   6273   9989   2718   34.4  0.094   3715      6  0.830  0.887  0.000  0.000  0.000  0.000  0.000   1.94  25.17   0.37      0   3715     84.6   1.60   0.00   1.00    3.92    4.00    2.33    0.68    0.49    0.52      0      0      0       0      73 19.90
 2013 176    72    71   19.0      5   2.35   2911   3330   1015    881   6241  10036   2718   37.3  0.101   3795      6  0.876  0.918  0.000  0.000  0.000  0.000  0.000   1.93  26.75   0.38      0   3795     80.9   1.60   0.00   1.00    3.92    4.00    2.33    0.68    0.49    0.52      0      0      0       0      73 20.00
 2013 177    73    72   19.0      5   2.25   2911   3303   1086    876   6214  10079   2718   39.9  0.108   3866      6  0.867  0.912  0.000  0.000  0.000  0.000  0.000   1.92  28.08   0.38      0   3866     77.4   1.60   0.00   1.00    3.92    4.00    2.33    0.68    0.49    0.52      0      0      0       0      73 20.83
 2013 178    74    73   19.0      5   2.15   2911   3279   1149    872   6190  10120   2718   42.3  0.114   3929      6  0.865  0.910  0.000  0.000  0.000  0.000  0.000   1.90  29.25   0.39      0   3929     74.0   1.60   0.00   1.00    3.92    4.00    2.33    0.68    0.49    0.52      0      0      0       0      73 21.43
 2013 179    75    74   19.0      5   2.06   2911   3241   1232    868   6152  10164   2718   45.3  0.121   4012      6  0.860  0.907  0.000  0.000  0.000  0.000  0.000   1.89  30.71   0.39      0   4012     70.8   1.60   0.00   1.00    3.92    4.00    2.33    0.68    0.49    0.52      0      0      0       0      73 19.90
 2013 180    76    75   19.0      5   2.03   2911   3290   1354    888   6201  10335   2718   49.8  0.131   4134      6  0.338  0.559  0.000  0.000  0.000  0.000  0.000   1.84  32.76   0.40      0   4134     69.7   1.60   0.00   1.00    3.90    3.98    2.38    0.69    0.51    0.64      0      0      0       0      73 20.20
 2013 181    77    76   19.0      5   1.95   2911   3231   1453    883   6142  10375   2718   53.5  0.140   4233      6  0.800  0.867  0.000  0.000  0.000  0.000  0.000   1.83  34.33   0.41      0   4233     66.9   1.60   0.00   1.00    3.90    3.98    2.38    0.69    0.51    0.64      0      0      0       0      73 18.00
 2013 182    78    77   19.0      5   1.95   2911   3269   1630    898   6180  10590   2718   60.0  0.154   4410      6  0.000  0.000  0.000  0.000  0.000  0.000  0.000   1.77  36.96   0.42      0   4410     66.9   1.60   0.00   1.00    3.97    4.00    2.45    0.69    0.51    0.64      0      0      0       0      73 18.20
 2013 183    79    78   19.0      5   1.95   2911   3350   1807    934   6261  10847   2718   66.5  0.167   4587      6  0.000  0.000  0.000  0.000  0.000  0.000  0.000   1.70  39.39   0.42      0   4587     66.9   1.60   0.00   1.00    4.00    4.00    2.60    0.70    0.50    0.65      0      0      0       0      73 17.55
 2013 184    80    79   19.0      5   1.95   2911   3425   1983    967   6336  11099   2718   73.0  0.179   4763      6  0.000  0.000  0.000  0.000  0.000  0.000  0.000   1.63  41.64   0.43      0   4763     66.9   1.60   0.00   1.00    4.00    4.00    2.74    0.71    0.50    0.65      0      0      0       0      73 18.95
 2013 185    81    80   19.0      5   1.95   2911   3483   2160    991   6394  11334   2718   79.5  0.191   4940      6  0.000  0.000  0.000  0.000  0.000  0.000  0.000   1.56  43.72   0.44      0   4940     66.9   1.60   0.00   1.00    4.00    4.00    2.84    0.72    0.50    0.66      0      0      0       0      73 18.90
 2013 186    82    81   19.0      5   1.95   2911   3511   2337   1010   6422  11538   2718   86.0  0.203   5117      6  0.000  0.000  0.000  0.000  0.000  0.000  0.000   1.51  45.67   0.44      0   5117     66.9   1.60   0.00   1.00    4.00    4.00    2.93    0.72    0.50    0.66      0      0      0       0      73 17.50
 2013 187    83    82   19.0      5   1.95   2911   3511   2498   1049   6422  11699   2718   91.9  0.213   5278      6  0.000  0.000  0.000  0.000  0.000  0.000  0.000   1.47  47.33   0.45      0   5278     66.9   1.60   0.00   1.00    4.00    4.00    3.12    0.73    0.50    0.67      0      0      0       0      73 19.70
 2013 188    84    83   19.0      5   1.95   2911   3511   2675   1084   6422  11876   2718   98.4  0.225   5455      6  0.000  0.000  0.000  0.000  0.000  0.000  0.000   1.42  49.03   0.46      0   5455     66.9   1.60   0.00   1.00    4.00    4.00    3.30    0.74    0.50    0.67      0      0      0       0      73 18.40
 2013 189    85    84   19.0      5   1.95   2911   3511   2849   1122   6422  12051   2718  104.8  0.236   5629      6  0.000  0.000  0.000  0.000  0.000  0.000  0.000   1.37  50.61   0.47      0   5629     66.9   1.60   0.00   1.00    4.00    4.00    3.48    0.75    0.49    0.68      0      0      0       0      73 19.10
 2013 190    86    85   19.0      5   1.95   2911   3511   3026   1147   6422  12227   2718  111.3  0.247   5806      6  0.000  0.000  0.000  0.000  0.000  0.000  0.000   1.32  52.12   0.47      0   5806     66.9   1.60   0.00   1.00    4.00    4.00    3.60    0.76    0.49    0.68      0      0      0       0      73 18.65
 2013 191    87    86   19.0      5   1.95   2911   3511   3202   1151   6422  12404   2718  117.8  0.258   5983      6  0.000  0.000  0.000  0.000  0.000  0.000  0.000   1.28  53.53   0.48      0   5983     66.9   1.60   0.00   1.00    3.99    4.00    3.64    0.76    0.49    0.68      0      0      0       0      73 17.65
 2013 192    88    87   19.0      5   1.95   2911   3511   3379   1179   6422  12581   2718  124.3  0.269   6159      6  0.000  0.121  0.000  0.000  0.000  0.000  0.000   1.17  54.86   0.49      0   6159     66.9   1.60   0.00   1.00    3.97    4.00    3.80    0.77    0.49    0.69      0      0      0       0      79 18.50
 2013 193    89    88   19.0      5   1.92   2911   3511   3530   1193   6422  12731   2718  129.8  0.277   6310      6  0.240  0.494  0.000  0.000  0.000  0.000  0.000   1.15  55.94   0.50      0   6310     66.1   1.60   0.00   1.00    3.95    4.00    3.89    0.77    0.49    0.69      0      0      0       0      85 19.15
 2013 194    90    89   19.0      5   1.88   2911   3511   3654   1196   6422  12856   2718  134.4  0.284   6434      6  0.480  0.654  0.000  0.000  0.000  0.000  0.000   1.13  56.79   0.50      0   6434     64.5   1.60   0.00   1.00    3.93    4.00    3.92    0.77    0.48    0.69      0      0      0       0      91 19.35
 2013 195    91    90   19.0      5   1.82   2911   3511   3749   1196   6422  12950   2718  137.9  0.289   6529      6  0.647  0.765  0.000  0.000  0.000  0.000  0.000   1.12  57.42   0.50      0   6529     62.4   1.60   0.00   1.00    3.91    4.00    3.95    0.77    0.48    0.69      0      0      0       0      97 20.33
 2013 196    92    91   19.0      5   1.77   2911   3484   3877   1190   6395  13053   2718  142.6  0.297   6658      6  0.493  0.662  0.000  0.000  0.000  0.000  0.000   1.08  58.24   0.51      0   6658     60.9   1.60   0.00   1.00    3.91    4.00    3.95    0.77    0.48    0.69      0      0      0       0      97 18.95
 2013 197    93    92   19.0      5   1.71   2911   3460   3989   1184   6371  13140   2718  146.8  0.304   6770      6  0.644  0.763  0.000  0.000  0.000  0.000  0.000   1.07  58.93   0.52      0   6770     58.9   1.60   0.00   1.00    3.91    4.00    3.95    0.77    0.48    0.69      0      0      0       0     103 19.15
 2013 198    94    93   19.0      5   1.65   2911   3446   4079   1179   6356  13215   2718  150.0  0.309   6859      6  0.761  0.841  0.000  0.000  0.000  0.000  0.000   1.06  59.47   0.52      0   6859     56.7   1.60   0.00   1.00    3.91    4.00    3.95    0.77    0.48    0.69      0      0      0       0     109 19.99
 2013 199    95    94   19.0      5   1.59   2911   3407   4186   1173   6318  13284   2718  154.0  0.315   6966      6  0.715  0.810  0.000  0.000  0.000  0.000  0.000   1.03  60.09   0.52      0   6966     54.6   1.60   0.00   1.00    3.91    4.00    3.95    0.77    0.48    0.69      0      0      0       0     109 18.70
 2013 200    96    95   19.0      5   1.54   2911   3342   4307   1167   6253  13340   2718  158.4  0.323   7087      6  0.571  0.714  0.000  0.000  0.000  0.000  0.000   1.01  60.77   0.53      0   7087     53.1   1.60   0.00   1.00    3.91    4.00    3.95    0.77    0.48    0.69      0      0      0       0     109 18.00
 2013 201    97    96   19.0      5   1.54   2911   3342   4307   1167   6253  13340   2718  158.4  0.323   7087      6  0.732  0.822  0.000  0.000  0.000  0.000  0.000   1.01  60.77   0.53      0   7087     53.1   1.60   0.00   1.00    3.91    4.00    3.95    0.77    0.48    0.69      0      0      0       0     109 19.25
 2013 202    98    97   19.0      5   1.54   2911   3342   4307   1167   6253  13340   2718  158.4  0.323   7087      6  0.847  0.899  0.000  0.000  0.000  0.000  0.000   1.01  60.77   0.53      0   7087     53.1   1.60   0.00   1.00    3.91    4.00    3.95    0.77    0.48    0.69      0      0      0       0     109 20.49
 2013 203    99    98   19.0      5   1.54   2911   3342   4307   1167   6253  13340   2718  158.4  0.323   7087      6  0.000  0.899  0.000  0.000  0.000  0.000  0.000   1.01  60.77   0.53      0   7087     53.1   1.60   0.00   1.00    3.91    4.00    3.95    0.77    0.48    0.69      0      0      0       0     109  0.00
 2013 204   100    99   19.0      5   1.54   2911   3342   4307   1167   6253  13340   2718  158.4  0.323   7087      6  0.000  0.899  0.000  0.000  0.000  0.000  0.000   1.01  60.77   0.53      0   7087     53.1   1.60   0.00   1.00    3.91    4.00    3.95    0.77    0.48    0.69      0      0      0       0     109 17.70

*DSSAT Cropping System Model Ver. 4.6.1.000 -release      AUG 23, 2017; 14:09:35
                                                                                
*RUN   2        : P2                        MZCER046 2\000002    2              
 MODEL          : MZCER046 - Maize                                              
 EXPERIMENT     : 2\000002 BN Calibracion Cerete 2013                           
 DATA PATH      : C:\L\0\00000                                                  
 TREATMENT  2   : P2                        MZCER046                            
  
!                                                                                                                                                                                                                                      Root Dens. (cm/cm3) by soil depth (cm):
!                                                                                                                                                                                                                                      0-5    5-15   15-30   30-53   53-77  77-100
@YEAR DOY   DAS   DAP   L#SD   GSTD   LAID   LWAD   SWAD   GWAD   RWAD   VWAD   CWAD   G#AD   GWGD   HIAD   PWAD   P#AD   WSPD   WSGD   NSTD   EWSD  PST1A  PST2A   KSTD   LN%D   SH%D   HIPD   PWDD   PWTD     SLAD   CHTD   CWID   RDPD    RL1D    RL2D    RL3D    RL4D    RL5D    RL6D   CDAD   LDAD   SDAD   SNW0C   SNW1C  DTTD
 2013 119    15     0    0.0      0   0.00      0      0      0      0      0      0      0    0.0  0.000      0      0  0.000  0.000  0.000  0.000  0.000  0.000  0.000   0.00   0.00   0.00      0      0      0.0   0.00   0.00   0.05    0.00    0.00    0.00    0.00    0.00    0.00      0      0      0       0       0 18.72
 2013 120    16     1    0.0      0   0.00      0      0      0      0      0      0      0    0.0  0.000      0      0  0.000  0.000  0.000  0.000  0.000  0.000  0.000   0.00   0.00   0.00      0      0      0.0   0.00   0.00   0.08    0.00    0.00    0.00    0.00    0.00    0.00      0      0      0       0       0 21.05
 2013 121    17     2    0.0      0   0.00      0      0      0      0      0      0      0    0.0  0.000      0      0  0.000  0.000  0.000  0.000  0.000  0.000  0.000   0.00   0.00   0.00      0      0      0.0   0.00   0.00   0.11    0.00    0.00    0.00    0.00    0.00    0.00      0      0      0       0       0 18.42
 2013 122    18     3    0.0      0   0.00      0      0      0      0      0      0      0    0.0  0.000      0      0  0.000  0.000  0.000  0.000  0.000  0.000  0.000   0.00   0.00   0.00      0      0      0.0   0.00   0.00   0.14    0.00    0.00    0.00    0.00    0.00    0.00      0      0      0       0       0 21.54
 2013 123    19     4    0.0      0   0.00      0      0      0      0      0      0      0    0.0  0.000      0      0  0.000  0.000  0.000  0.000  0.000  0.000  0.000   0.00   0.00   0.00      0      0      0.0   0.00   0.00   0.17    0.00    0.00    0.00    0.00    0.00    0.00      0      0      0       0       0 17.34
 2013 124    20     5    2.0      1   0.00     12     12      0     12     25     25      0    0.0  0.000      0      0  0.000  0.000  0.012  0.000  0.000  0.000  0.000   4.40   0.00   0.00      0      0     33.7   0.00   0.00   0.19    0.25    0.12    0.01    0.00    0.00    0.00      0      0      0       0       0 20.68
 2013 125    21     6    2.0      1   0.01     12     12      0     13     25     25      0    0.0  0.000      0      0  0.000  0.000  0.010  0.000  0.000  0.000  0.000   4.40   0.00   0.00      0      0     62.1   0.00   0.00   0.21    0.25    0.13    0.01    0.00    0.00    0.00      0      0      0       0       0 17.55
 2013 126    22     7    3.0      1   0.01     12     12      0     13     25     25      0    0.0  0.000      0      0  0.000  0.000  0.000  0.000  0.000  0.000  0.000   4.40   0.00   0.00      0      0     99.7   0.01   0.00   0.23    0.26    0.13    0.01    0.00    0.00    0.00      0      0      0       0       0 20.01
 2013 127    23     8    3.0      1   0.02     12     12      0     14     25     25      0    0.0  0.000      0      0  0.000  0.000  0.000  0.000  0.000  0.000  0.000   4.40   0.00   0.00      0      0    131.4   0.01   0.00   0.24    0.26    0.14    0.01    0.00    0.00    0.00      0      0      0       0       0 15.70
 2013 128    24     9    4.0      1   0.03     12     12      0     16     25     25      0    0.0  0.000      0      0  0.000  0.000  0.000  0.000  0.000  0.000  0.000   4.40   0.00   0.00      0      0    266.1   0.02   0.00   0.26    0.28    0.15    0.02    0.00    0.00    0.00      0      0      0       0       0 19.24
 2013 129    25    10    4.0      1   0.05     16     12      0     17     28     28      0    0.0  0.000      0      0  0.000  0.000  0.000  0.000  0.000  0.000  0.000   3.86   0.00   0.00      0      0    326.5   0.03   0.00   0.28    0.28    0.15    0.03    0.00    0.00    0.00      0      0      0       0       0 18.75
 2013 130    26    11    5.0      1   0.08     26     12      0     19     38     38      0    0.0  0.000      0      0  0.000  0.000  0.000  0.000  0.000  0.000  0.000   3.05   0.00   0.00      0      0    296.1   0.04   0.00   0.30    0.30    0.17    0.04    0.00    0.00    0.00      0      0      0       0       0 20.19
 2013 131    27    12    5.0      1   0.10     38     12      0     21     50     50      0    0.0  0.000      0      0  0.000  0.000  0.000  0.000  0.000  0.000  0.000   3.04   0.00   0.00      0      0    273.3   0.06   0.00   0.32    0.31    0.18    0.06    0.00    0.00    0.00      0      0      0       0       0 20.27
 2013 132    28    13    6.0      1   0.14     53     12      0     25     66     66      0    0.0  0.000      0      0  0.000  0.000  0.000  0.000  0.000  0.000  0.000   3.03   0.00   0.00      0      0    255.1   0.07   0.00   0.33    0.33    0.20    0.09    0.00    0.00    0.00      0      0      0       0       0 20.59
 2013 133    29    14    6.0      2   0.17     67     12      0     30     80     80      0    0.0  0.000      0      0  0.000  0.000  0.000  0.000  0.000  0.000  0.000   3.20   0.00   0.00      0      0    259.7   0.09   0.00   0.34    0.35    0.23    0.12    0.00    0.00    0.00      0      0      0       0       0 19.18
 2013 134    30    15    7.0      2   0.22     91     12      0     37    103    103      0    0.0  0.000      0      0  0.000  0.000  0.003  0.000  0.000  0.000  0.000   3.00   0.00   0.00      0      0    244.1   0.12   0.00   0.35    0.38    0.27    0.17    0.00    0.00    0.00      0      0      0       0       1 20.63
 2013 135    31    16    7.0      2   0.27    115     12      0     41    127    127      0    0.0  0.000      0      0  0.000  0.000  0.000  0.000  0.000  0.000  0.000   3.13   0.00   0.00      0      0    232.7   0.14   0.00   0.37    0.39    0.28    0.20    0.01    0.00    0.00      0      0      0       0       1 17.81
 2013 136    32    17    7.0      2   0.33    147     12      0     53    160    160      0    0.0  0.000      0      0  0.000  0.000  0.000  0.000  0.000  0.000  0.000   3.02   0.00   0.00      0      0    220.8   0.18   0.00   0.39    0.43    0.34    0.30    0.02    0.00    0.00      0      0      0       0       1 20.47
 2013 137    33    18    8.0      2   0.37    171     12      0     57    184    184      0    0.0  0.000      0      0  0.000  0.000  0.000  0.000  0.000  0.000  0.000   3.78   0.00   0.00      0      0    214.0   0.20   0.00   0.41    0.43    0.35    0.33    0.02    0.00    0.00      0      0      0       0       1 17.19
 2013 138    34    19    8.0      2   0.44    214     12      0     86    227    227      0    0.0  0.000      0      0  0.000  0.000  0.000  0.000  0.000  0.000  0.000   3.73   0.00   0.00      0      0    204.3   0.24   0.00   0.43    0.50    0.46    0.54    0.06    0.00    0.00      0      0      0       0       2 20.20
 2013 139    35    20    9.0      2   0.50    255     12      0     92    267    267      0    0.0  0.000      0      0  0.000  0.000  0.000  0.000  0.000  0.000  0.000   3.69   0.00   0.00      0      0    196.9   0.27   0.00   0.45    0.52    0.48    0.58    0.08    0.00    0.00      0      0      0       0       2 17.62
 2013 140    36    21    9.0      3   0.58    307     13      0    129    320    320      0    0.0  0.000      0      0  0.000  0.000  0.000  0.000  0.000  0.000  0.000   3.61   0.00   0.00      0      0    189.1   0.31   0.00   0.47    0.66    0.59    0.82    0.16    0.00    0.00      0      0      0       0       2 19.27
 2013 141    37    22    9.0      3   0.66    361     13      0    142    374    374      0    0.0  0.000      0      0  0.000  0.000  0.000  0.000  0.000  0.000  0.000   3.54   0.00   0.00      0      0    183.6   0.36   0.00   0.49    0.67    0.62    0.90    0.20    0.00    0.00      0      0      0       0       3 17.57
 2013 142    38    23   10.0      3   0.76    428     15      0    170    443    443      0    0.0  0.000      0      0  0.000  0.000  0.000  0.000  0.000  0.000  0.000   3.48   0.00   0.00      0      0    178.0   0.41   0.00   0.51    0.67    0.67    1.07    0.30    0.00    0.00      0      0      0       0       4 19.69
 2013 143    39    24   10.0      3   0.85    493     18      0    196    511    511      0    0.0  0.000      0      0  0.000  0.000  0.000  0.000  0.000  0.000  0.000   3.43   0.00   0.00      0      0    173.4   0.46   0.00   0.53    0.69    0.69    1.17    0.45    0.00    0.00      0      0      0       0       5 16.89
 2013 144    40    25   11.0      3   0.96    570     24      0    220    594    594      0    0.0  0.000      0      0  0.000  0.000  0.000  0.000  0.000  0.000  0.000   3.38   0.00   0.00      0      0    168.7   0.52   0.00   0.54    1.39    0.69    1.17    0.49    0.00    0.00      0      0      0       0       6 18.36
 2013 145    41    26   11.0      3   1.08    659     34      0    269    693    693      0    0.0  0.000      0      0  0.000  0.000  0.000  0.000  0.000  0.000  0.000   3.32   0.00   0.00      0      0    164.2   0.58   0.00   0.56    2.83    0.70    1.18    0.57    0.02    0.00      0      0      0       0       7 18.90
 2013 146    42    27   11.0      3   1.19    745     47      0    288    791    791      0    0.0  0.000      0      0  0.000  0.000  0.000  0.000  0.000  0.000  0.000   3.27   0.00   0.00      0      0    160.4   0.64   0.00   0.58    3.23    0.82    1.18    0.58    0.03    0.00      0      0      0       0       8 16.75
 2013 147    43    28   12.0      3   1.35    866     70      0    321    936    936      0    0.0  0.000      0      0  0.000  0.000  0.000  0.000  0.000  0.000  0.000   3.22   0.00   0.00      0      0    155.9   0.73   0.00   0.60    3.75    1.10    1.19    0.60    0.04    0.00      0      0      0       0       9 19.20
 2013 148    44    29   12.0      3   1.50    990    101      0    344   1091   1091      0    0.0  0.000      0      0  0.000  0.000  0.000  0.000  0.000  0.000  0.000   3.17   0.00   0.00      0      0    151.9   0.81   0.00   0.62    3.99    1.30    1.25    0.61    0.05    0.00      0      0      0       0      11 19.15
 2013 149    45    30   13.0      3   1.65   1111    137      0    393   1248   1248      0    0.0  0.000      0      0  0.000  0.000  0.000  0.000  0.000  0.000  0.000   3.12   0.00   0.00      0      0    148.6   0.89   0.00   0.64    4.00    1.70    1.39    0.63    0.07    0.00      0      0      0       0      13 18.00
 2013 150    46    31   13.0      3   1.80   1236    183      0    418   1419   1419      0    0.0  0.000      0      0  0.000  0.000  0.000  0.000  0.000  0.000  0.000   3.07   0.00   0.00      0      0    145.6   0.97   0.00   0.66    4.00    1.89    1.47    0.64    0.08    0.00      0      0      0       0      15 18.30
 2013 151    47    32   13.0      3   1.95   1365    240      0    446   1606   1606      0    0.0  0.000      0      0  0.000  0.000  0.000  0.000  0.000  0.000  0.000   3.02   0.00   0.00      0      0    142.8   1.05   0.00   0.68    4.00    2.11    1.55    0.65    0.09    0.00      0      0      0       0      17 18.60
 2013 152    48    33   14.0      3   2.10   1499    309      0    496   1808   1808      0    0.0  0.000      0      0  0.000  0.000  0.000  0.000  0.000  0.000  0.000   2.97   0.00   0.00      0      0    140.2   1.13   0.00   0.70    4.00    2.51    1.70    0.67    0.12    0.00      0      0      0       0      19 18.75
 2013 153    49    34   14.0      3   2.25   1631    388      0    549   2019   2019      0    0.0  0.000      0      0  0.000  0.000  0.000  0.000  0.000  0.000  0.000   2.93   0.00   0.00      0      0    138.0   1.21   0.00   0.72    4.00    2.92    1.85    0.69    0.16    0.00      0      0      0       0      22 18.20
 2013 154    50    35   15.0      3   2.40   1764    479      0    566   2243   2243      0    0.0  0.000      0      0  0.000  0.000  0.000  0.000  0.000  0.000  0.000   2.88   0.00   0.00      0      0    135.9   1.29   0.00   0.74    4.00    3.05    1.88    0.70    0.18    0.00      0      0      0       0      24 18.05
 2013 155    51    36   15.0      3   2.54   1901    586      0    599   2487   2487      0    0.0  0.000      0      0  0.000  0.000  0.000  0.000  0.000  0.000  0.000   2.84   0.00   0.00      0      0    133.9   1.37   0.00   0.76    4.00    3.31    1.95    0.72    0.21    0.00      0      0      0       0      27 18.30
 2013 156    52    37   16.0      3   2.72   2066    751      0    615   2818   2818      0    0.0  0.000      0      0  0.000  0.000  0.000  0.000  0.000  0.000  0.000   2.74   0.00   0.00      0      0    131.7   1.47   0.00   0.78    4.00    3.42    1.97    0.72    0.23    0.00      0      0      0       0      30 18.50
 2013 157    53    38   16.0      3   2.83   2168    896      0    625   3064   3066      0    0.0  0.000      2      0  0.000  0.000  0.000  0.000  0.000  0.000  0.000   2.65   0.00   0.00      0      2    130.5   1.52   0.00   0.79    4.00    3.49    1.96    0.73    0.26    0.00      0      0      0       0      33 17.90
 2013 158    54    39   16.0      3   2.95   2282   1091      0    640   3373   3381      0    0.0  0.000      8      0  0.000  0.000  0.000  0.000  0.000  0.000  0.000   2.49   0.00   0.00      0      8    129.2   1.59   0.00   0.81    3.98    3.58    1.96    0.74    0.30    0.03      0      0      0       0      36 18.05
 2013 159    55    40   17.0      3   3.04   2374   1267      0    679   3641   3659      0    0.0  0.000     18      0  0.000  0.189  0.000  0.000  0.000  0.000  0.000   2.36   0.00   0.00      0     18    128.2   1.60   0.00   0.83    3.96    3.68    2.00    0.78    0.43    0.14      0      0      0       0      40 17.95
 2013 160    56    41   17.0      3   3.14   2470   1472      0    700   3942   3975      0    0.0  0.000     32      0  0.000  0.101  0.014  0.000  0.000  0.000  0.000   2.24   0.00   0.01      0     32    127.0   1.60   0.00   0.85    3.94    3.69    2.01    0.79    0.49    0.24      0      0      0       0      43 19.00
 2013 161    57    42   18.0      3   3.20   2541   1636      0    711   4177   4222      0    0.0  0.000     45      0  0.000  0.009  0.030  0.000  0.000  0.000  0.000   2.17   0.00   0.01      0     45    125.8   1.60   0.00   0.87    3.92    3.69    2.02    0.79    0.52    0.30      0      0      0       0      46 18.50
 2013 162    58    43   18.0      3   3.25   2610   1800      0    721   4410   4475      0    0.0  0.000     64      0  0.000  0.126  0.047  0.000  0.000  0.000  0.000   2.10   0.00   0.01      0     64    124.4   1.60   0.00   0.89    3.90    3.69    2.03    0.79    0.53    0.37      0      0      0       0      50 18.25
 2013 163    59    44   18.0      3   3.28   2668   1929      0    778   4597   4699      0    0.0  0.000    102      0  0.000  0.304  0.055  0.000  0.000  0.000  0.000   2.09   0.00   0.02      0    102    123.1   1.60   0.00   0.91    4.00    3.70    2.05    0.79    0.55    0.50      0      0      0       0      54 18.60
 2013 164    60    45   19.0      3   3.33   2741   2091      0    813   4832   4989      0    0.0  0.000    157      0  0.000  0.016  0.056  0.000  0.000  0.000  0.000   2.03   0.00   0.03      0    157    121.6   1.60   0.00   0.93    4.00    3.73    2.09    0.80    0.56    0.66      0      0      0       0      57 19.80
 2013 165    61    46   19.0      3   3.31   2775   2148      0    869   4923   5135      0    0.0  0.000    211      0  0.324  0.550  0.058  0.000  0.000  0.000  0.000   2.01   0.00   0.04      0    211    119.4   1.60   0.00   0.95    3.98    3.81    2.18    0.82    0.58    1.00      0      0      0       0      62 19.25
 2013 166    62    47   19.0      3   3.28   2807   2193      0    906   5000   5270      0    0.0  0.000    270      0  0.379  0.586  0.068  0.000  0.000  0.000  0.000   2.00   0.00   0.05      0    270    116.9   1.60   0.00   0.97    3.96    3.86    2.24    0.84    0.60    1.23      0      0      0       0      66 19.40
 2013 167    63    48   19.0      3   3.21   2831   2209      0    937   5040   5368      0    0.0  0.000    329      0  0.569  0.713  0.065  0.000  0.000  0.000  0.000   1.99   0.00   0.06      0    329    113.4   1.60   0.00   0.99    3.94    3.91    2.29    0.85    0.61    1.42      0      0      0       0      70 20.45
 2013 168    64    49   19.0      3   3.14   2853   2219      0    957   5072   5461      0    0.0  0.000    390      0  0.593  0.729  0.062  0.000  0.000  0.000  0.000   1.99   0.00   0.07      0    390    109.9   1.60   0.00   1.00    3.92    3.89    2.33    0.86    0.62    1.56      0      0      0       0      75 20.40
 2013 169    65    50   19.0      3   3.04   2869   2245      0    975   5115   5531      0    0.0  0.000    416      0  0.686  0.791  0.055  0.000  0.000  0.000  0.000   1.98   0.00   0.08      0    416    106.1   1.60   0.00   1.00    3.90    3.87    2.38    0.87    0.63    1.68      0      0      0       0      80 19.95
 2013 170    66    51   19.0      4   2.95   2839   2325      0    974   5164   5595      0    0.0  0.000    431      0  0.634  0.757  0.049  0.000  0.000  0.000  0.000   1.97   0.00   0.08      0    431    103.9   1.60   0.00   1.00    3.88    3.85    2.38    0.87    0.63    1.69      0      0      0       0      85 19.65
 2013 171    67    52   19.0      4   2.84   2806   2397      0    973   5202   5642      0    0.0  0.000    440      0  0.759  0.840  0.041  0.000  0.000  0.000  0.000   1.97   0.00   0.08      0    440    101.1   1.60   0.00   1.00    3.86    3.83    2.37    0.87    0.63    1.70      0      0      0       0      90 19.90
 2013 172    68    53   19.0      4   2.72   2769   2461      0    971   5230   5677      0    0.0  0.000    447      0  0.797  0.865  0.034  0.000  0.000  0.000  0.000   1.96   0.00   0.08      0    447     98.3   1.60   0.00   1.00    3.84    3.81    2.37    0.87    0.63    1.70      0      0      0       0      95 19.25
 2013 173    69    54   19.0      4   2.62   2730   2517      0    969   5247   5701      0    0.0  0.000    454      0  0.779  0.853  0.026  0.000  0.000  0.000  0.000   1.96   0.00   0.08      0    454     95.9   1.60   0.00   1.00    3.82    3.79    2.37    0.86    0.63    1.71      0      0      0       0      99 19.80
 2013 174    70    55   19.0      4   2.52   2688   2567      0    967   5255   5716      0    0.0  0.000    461      0  0.777  0.852  0.017  0.000  0.000  0.000  0.000   1.96   0.00   0.08      0    461     93.6   1.60   0.00   1.00    3.80    3.77    2.37    0.86    0.63    1.71      0      0      0       0     104 20.05
 2013 175    71    56   19.0      4   2.41   2643   2614      0    964   5257   5724      0    0.0  0.000    466      0  0.809  0.873  0.007  0.000  0.000  0.000  0.000   1.97   0.00   0.08      0    466     91.3   1.60   0.00   1.00    3.78    3.75    2.36    0.86    0.63    1.71      0      0      0       0     109 19.90
 2013 176    72    57   19.0      4   2.31   2595   2658      0    961   5253   5723      0    0.0  0.000    470      0  0.862  0.908  0.000  0.000  0.000  0.000  0.000   1.97   0.00   0.08      0    470     89.0   1.60   0.00   1.00    3.76    3.73    2.36    0.86    0.63    1.71      0      0      0       0     114 20.00
 2013 177    73    58   19.0      4   2.21   2544   2698      0    959   5242   5716      0    0.0  0.000    474      0  0.854  0.903  0.000  0.000  0.000  0.000  0.000   1.98   0.00   0.08      0    474     86.9   1.60   0.00   1.00    3.74    3.71    2.36    0.86    0.63    1.70      0      0      0       0     119 20.83
 2013 178    74    59   19.0      4   2.12   2489   2735      0    956   5224   5702      0    0.0  0.000    477      0  0.853  0.903  0.000  0.000  0.000  0.000  0.000   1.98   0.00   0.08      0    477     85.0   1.60   0.00   1.00    3.72    3.69    2.35    0.85    0.63    1.70      0      0      0       0     123 21.43
 2013 179    75    60   19.0      5   2.03   2489   2735     24    955   5224   5725    781    3.0  0.004    501      6  0.866  0.911  0.000  0.000  0.000  0.000  0.000   1.97   4.71   0.09      0    501     81.4   1.60   0.00   1.00    3.87    3.67    2.34    0.85    0.62    1.69      0      0      0       0     123 19.90
 2013 180    76    61   19.0      5   1.98   2489   2735     55    986   5224   5757    781    7.1  0.010    533      6  0.479  0.653  0.000  0.000  0.000  0.000  0.000   1.96  10.40   0.09      0    533     79.4   1.60   0.00   1.00    3.85    3.65    2.33    0.93    0.70    1.82      0      0      0       0     123 20.20
 2013 181    77    62   19.0      5   1.90   2489   2735     83    983   5224   5785    781   10.7  0.014    560      6  0.819  0.880  0.000  0.000  0.000  0.000  0.000   1.95  14.86   0.10      0    560     76.2   1.60   0.00   1.00    3.85    3.66    2.32    0.92    0.70    1.81      0      0      0       0     123 18.00
 2013 182    78    63   19.0      5   1.90   2489   2735    134   1027   5224   5836    781   17.2  0.023    611      6  0.000  0.000  0.000  0.000  0.000  0.000  0.000   1.93  21.93   0.10      0    611     76.2   1.60   0.00   1.00    4.00    4.00    2.41    0.92    0.69    1.80      0      0      0       0     123 18.20
 2013 183    79    64   19.0      5   1.90   2489   2735    185   1093   5224   5886    781   23.7  0.031    662      6  0.000  0.000  0.000  0.000  0.000  0.000  0.000   1.92  27.91   0.11      0    662     76.2   1.60   0.00   1.00    4.00    4.00    2.58    0.91    0.69    1.79      0      0      0       0     123 17.55
 2013 184    80    65   19.0      5   1.90   2489   2735    236   1155   5224   5937    781   30.2  0.040    713      6  0.000  0.000  0.000  0.000  0.000  0.000  0.000   1.90  33.05   0.12      0    713     76.2   1.60   0.00   1.00    4.00    4.00    2.75    0.91    0.69    1.79      0      0      0       0     123 18.95
 2013 185    81    66   19.0      5   1.90   2489   2735    286   1209   5224   5988    781   36.7  0.048    764      6  0.000  0.000  0.000  0.000  0.000  0.000  0.000   1.88  37.50   0.13      0    764     76.2   1.60   0.00   1.00    4.00    4.00    2.89    0.91    0.69    1.78      0      0      0       0     123 18.90
 2013 186    82    67   19.0      5   1.90   2489   2735    337   1257   5224   6039    781   43.2  0.056    814      6  0.000  0.000  0.000  0.000  0.000  0.000  0.000   1.87  41.40   0.13      0    814     76.2   1.60   0.00   1.00    4.00    4.00    3.07    0.90    0.69    1.77      0      0      0       0     123 17.50
 2013 187    83    68   19.0      5   1.90   2489   2735    383   1323   5224   6085    781   49.1  0.063    861      6  0.000  0.000  0.000  0.000  0.000  0.000  0.000   1.85  44.55   0.14      0    861     76.2   1.60   0.00   1.00    4.00    4.00    3.36    0.90    0.68    1.77      0      0      0       0     123 19.70
 2013 188    84    69   19.0      5   1.90   2489   2735    434   1387   5224   6136    781   55.6  0.071    911      6  0.000  0.000  0.000  0.000  0.000  0.000  0.000   1.83  47.64   0.15      0    911     76.2   1.60   0.00   1.00    4.00    4.00    3.64    0.90    0.68    1.76      0      0      0       0     123 18.40
 2013 189    85    70   19.0      5   1.90   2489   2735    484   1453   5224   6186    781   62.0  0.078    961      6  0.000  0.000  0.000  0.000  0.000  0.000  0.000   1.82  50.37   0.16      0    961     76.2   1.60   0.00   1.00    4.00    4.00    3.92    0.89    0.68    1.76      0      0      0       0     123 19.10
 2013 190    86    71   19.0      5   1.90   2489   2735    535   1507   5224   6237    781   68.5  0.086   1012      6  0.000  0.000  0.000  0.000  0.000  0.000  0.000   1.80  52.86   0.16      0   1012     76.2   1.60   0.00   1.00    4.00    4.00    4.00    0.89    0.68    1.75      0      0      0       0     123 18.65
 2013 191    87    72   19.0      5   1.90   2489   2735    586   1540   5224   6287    781   75.0  0.093   1063      6  0.000  0.000  0.000  0.000  0.000  0.000  0.000   1.78  55.11   0.17      0   1063     76.2   1.60   0.00   1.00    4.00    4.00    4.00    0.89    0.68    1.74      0      0      0       0     123 17.65
 2013 192    88    73   19.0      5   1.90   2489   2735    637   1596   5224   6338    781   81.5  0.100   1114      6  0.000  0.050  0.000  0.000  0.000  0.000  0.000   1.77  57.15   0.18      0   1114     76.2   1.60   0.00   1.00    3.98    4.00    4.00    0.89    0.67    1.74      0      0      0       0     123 18.50
 2013 193    89    74   19.0      5   1.88   2489   2735    681   1637   5224   6382    781   87.2  0.107   1158      6  0.202  0.468  0.000  0.000  0.000  0.000  0.000   1.75  58.79   0.18      0   1158     75.4   1.60   0.00   1.00    3.96    4.00    4.00    0.89    0.67    1.73      0      0      0       0     123 19.15
 2013 194    90    75   19.0      5   1.83   2489   2735    717   1660   5224   6418    781   91.8  0.112   1194      6  0.475  0.650  0.000  0.000  0.000  0.000  0.000   1.74  60.03   0.19      0   1194     73.6   1.60   0.00   1.00    3.94    4.00    4.00    0.88    0.67    1.73      0      0      0       0     123 19.35
 2013 195    91    76   19.0      5   1.77   2489   2735    744   1674   5224   6446    781   95.3  0.115   1221      6  0.647  0.765  0.000  0.000  0.000  0.000  0.000   1.73  60.92   0.19      0   1221     71.2   1.60   0.00   1.00    3.92    4.00    4.00    0.88    0.67    1.72      0      0      0       0     123 20.33
 2013 196    92    77   19.0      5   1.73   2489   2735    781   1682   5224   6482    781  100.0  0.120   1258      6  0.494  0.663  0.000  0.000  0.000  0.000  0.000   1.72  62.07   0.19      0   1258     69.5   1.60   0.00   1.00    3.90    4.00    4.00    0.88    0.66    1.71      0      0      0       0     123 18.95
 2013 197    93    78   19.0      5   1.67   2489   2735    813   1687   5224   6515    781  104.1  0.125   1290      6  0.646  0.765  0.000  0.000  0.000  0.000  0.000   1.70  63.01   0.20      0   1290     67.2   1.60   0.00   1.00    3.88    4.00    4.00    0.88    0.66    1.71      0      0      0       0     123 19.15
 2013 198    94    79   19.0      5   1.61   2489   2735    839   1690   5224   6540    781  107.4  0.128   1316      6  0.763  0.843  0.000  0.000  0.000  0.000  0.000   1.70  63.73   0.20      0   1316     64.6   1.60   0.00   1.00    3.86    4.00    4.00    0.88    0.66    1.70      0      0      0       0     123 19.99
 2013 199    95    80   19.0      5   1.55   2489   2735    869   1691   5224   6571    781  111.3  0.132   1346      6  0.717  0.812  0.000  0.000  0.000  0.000  0.000   1.68  64.56   0.20      0   1346     62.3   1.60   0.00   1.00    3.84    3.98    4.00    0.88    0.65    1.70      0      0      0       0     123 18.70
 2013 200    96    81   19.0      5   1.51   2489   2735    906   1689   5224   6607    781  116.0  0.137   1383      6  0.518  0.679  0.000  0.000  0.000  0.000  0.000   1.67  65.49   0.21      0   1383     60.7   1.60   0.00   1.00    3.82    3.96    4.00    0.88    0.65    1.70      0      0      0       0     123 18.00
 2013 201    97    82   19.0      5   1.46   2489   2735    935   1685   5224   6636    781  119.7  0.141   1412      6  0.736  0.825  0.000  0.000  0.000  0.000  0.000   1.66  66.20   0.21      0   1412     58.5   1.60   0.00   1.00    3.80    3.94    4.00    0.88    0.65    1.70      0      0      0       0     123 19.25
 2013 202    98    83   19.0      5   1.39   2489   2735    956   1682   5224   6658    781  122.4  0.144   1433      6  0.846  0.898  0.000  0.000  0.000  0.000  0.000   1.65  66.70   0.22      0   1433     56.0   1.60   0.00   1.00    3.78    3.92    3.98    0.90    0.66    1.69      0      0      0       0     123 20.49
 2013 203    99    84   19.0      5   1.33   2489   2735    976   1676   5224   6677    781  124.9  0.146   1453      6  0.891  0.928  0.000  0.000  0.000  0.000  0.000   1.65  67.15   0.22      0   1453     53.5   1.60   0.00   1.00    3.76    3.90    3.96    0.91    0.66    1.68      0      0      0       0     123 20.67
 2013 204   100    85   19.0      5   1.27   2489   2733   1002   1668   5223   6702    781  128.3  0.149   1479      6  0.878  0.919  0.000  0.000  0.000  0.000  0.000   1.64  67.74   0.22      0   1479     51.2   1.60   0.00   1.00    3.76    3.90    3.96    0.91    0.66    1.68      0      0      0       0     123 17.70
 2013 205   101    86   19.0      5   1.27   2489   2735   1047   1711   5224   6749    781  134.1  0.155   1524      6  0.000  0.000  0.000  0.000  0.000  0.000  0.000   1.62  68.70   0.23      0   1524     51.2   1.60   0.00   1.00    4.00    4.00    3.94    0.91    0.66    1.67      0      0      0       0     123 19.77
 2013 206   102    87   19.0      5   1.25   2489   2735   1088   1727   5224   6789    781  139.3  0.160   1565      6  0.371  0.581  0.000  0.000  0.000  0.000  0.000   1.61  69.50   0.23      0   1565     50.2   1.60   0.00   1.00    4.00    4.00    3.92    0.91    0.66    1.67      0      0      0       0     123 18.70
 2013 207   103    88   19.0      5   1.20   2489   2735   1115   1726   5224   6816    781  142.7  0.164   1592      6  0.738  0.826  0.000  0.000  0.000  0.000  0.000   1.60  70.02   0.23      0   1592     48.4   1.60   0.00   1.00    3.98    4.00    3.90    0.91    0.66    1.66      0      0      0       0     123 19.85
 2013 208   104    89   19.0      5   1.15   2489   2735   1136   1721   5224   6837    781  145.4  0.166   1613      6  0.849  0.900  0.000  0.000  0.000  0.000  0.000   1.59  70.41   0.24      0   1613     46.3   1.60   0.00   1.00    3.96    4.00    3.88    0.90    0.65    1.65      0      0      0       0     123 20.47
 2013 209   105    90   19.0      5   1.10   2489   2735   1157   1715   5224   6859    781  148.1  0.169   1634      6  0.848  0.899  0.000  0.000  0.000  0.000  0.000   1.58  70.80   0.24      0   1634     44.3   1.60   0.00   1.00    3.94    4.00    3.86    0.90    0.65    1.64      0      0      0       0     123 20.67
 2013 210   106    91   19.0      5   1.05   2489   2735   1180   1707   5224   6882    781  151.1  0.171   1657      6  0.887  0.925  0.000  0.000  0.000  0.000  0.000   1.57  71.20   0.24      0   1657     42.4   1.60   0.00   1.00    3.92    4.00    3.84    0.90    0.65    1.63      0      0      0       0     123 19.69
 2013 211   107    92   19.0      5   1.01   2489   2735   1205   1699   5224   6907    781  154.3  0.174   1682      6  0.862  0.908  0.000  0.000  0.000  0.000  0.000   1.57  71.63   0.24      0   1682     40.6   1.60   0.00   1.00    3.90    3.98    3.82    0.89    0.64    1.62      0      0      0       0     123 19.50
 2013 212   108    93   19.0      5   0.96   2489   2734   1228   1690   5224   6929    781  157.3  0.177   1705      6  0.882  0.922  0.000  0.000  0.000  0.000  0.000   1.56  72.02   0.25      0   1705     38.8   1.60   0.00   1.00    3.90    3.98    3.82    0.89    0.64    1.62      0      0      0       0     123 19.81
 2013 213   109    94   19.0      5   0.96   2489   2734   1228   1690   5224   6929    781  157.3  0.177   1705      6  0.899  0.933  0.000  0.000  0.000  0.000  0.000   1.56  72.02   0.25      0   1705     38.8   1.60   0.00   1.00    3.90    3.98    3.82    0.89    0.64    1.62      0      0      0       0     123 19.78
 2013 214   110    95   19.0      5   0.96   2489   2734   1228   1690   5224   6929    781  157.3  0.177   1705      6  0.920  0.947  0.000  0.000  0.000  0.000  0.000   1.56  72.02   0.25      0   1705     38.8   1.60   0.00   1.00    3.90    3.98    3.82    0.89    0.64    1.62      0      0      0       0     123 21.30
 2013 215   111    96   19.0      5   0.96   2489   2734   1228   1690   5224   6929    781  157.3  0.177   1705      6  0.000  0.947  0.000  0.000  0.000  0.000  0.000   1.56  72.02   0.25      0   1705     38.8   1.60   0.00   1.00    3.90    3.98    3.82    0.89    0.64    1.62      0      0      0       0     123  0.00
 2013 216   112    97   19.0      5   0.96   2489   2734   1228   1690   5224   6929    781  157.3  0.177   1705      6  0.000  0.947  0.000  0.000  0.000  0.000  0.000   1.56  72.02   0.25      0   1705     38.8   1.60   0.00   1.00    3.90    3.98    3.82    0.89    0.64    1.62      0      0      0       0     123 19.58

*DSSAT Cropping System Model Ver. 4.6.1.000 -release      AUG 23, 2017; 14:09:35
                                                                                
*RUN   3        : P3                        MZCER046 2\000002    3              
 MODEL          : MZCER046 - Maize                                              
 EXPERIMENT     : 2\000002 BN Calibracion Cerete 2013                           
 DATA PATH      : C:\L\0\00000                                                  
 TREATMENT  3   : P3                        MZCER046                            
  
!                                                                                                                                                                                                                                      Root Dens. (cm/cm3) by soil depth (cm):
!                                                                                                                                                                                                                                      0-5    5-15   15-30   30-53   53-77  77-100
@YEAR DOY   DAS   DAP   L#SD   GSTD   LAID   LWAD   SWAD   GWAD   RWAD   VWAD   CWAD   G#AD   GWGD   HIAD   PWAD   P#AD   WSPD   WSGD   NSTD   EWSD  PST1A  PST2A   KSTD   LN%D   SH%D   HIPD   PWDD   PWTD     SLAD   CHTD   CWID   RDPD    RL1D    RL2D    RL3D    RL4D    RL5D    RL6D   CDAD   LDAD   SDAD   SNW0C   SNW1C  DTTD
 2013 133    29     0    0.0      0   0.00      0      0      0      0      0      0      0    0.0  0.000      0      0  0.000  0.000  0.000  0.000  0.000  0.000  0.000   0.00   0.00   0.00      0      0      0.0   0.00   0.00   0.05    0.00    0.00    0.00    0.00    0.00    0.00      0      0      0       0       0 19.18
 2013 134    30     1    0.0      0   0.00      0      0      0      0      0      0      0    0.0  0.000      0      0  0.000  0.000  0.000  0.000  0.000  0.000  0.000   0.00   0.00   0.00      0      0      0.0   0.00   0.00   0.08    0.00    0.00    0.00    0.00    0.00    0.00      0      0      0       0       0 20.63
 2013 135    31     2    0.0      0   0.00      0      0      0      0      0      0      0    0.0  0.000      0      0  0.000  0.000  0.000  0.000  0.000  0.000  0.000   0.00   0.00   0.00      0      0      0.0   0.00   0.00   0.11    0.00    0.00    0.00    0.00    0.00    0.00      0      0      0       0       0 17.81
 2013 136    32     3    0.0      0   0.00      0      0      0      0      0      0      0    0.0  0.000      0      0  0.000  0.000  0.000  0.000  0.000  0.000  0.000   0.00   0.00   0.00      0      0      0.0   0.00   0.00   0.14    0.00    0.00    0.00    0.00    0.00    0.00      0      0      0       0       0 20.47
 2013 137    33     4    0.0      0   0.00      0      0      0      0      0      0      0    0.0  0.000      0      0  0.000  0.000  0.000  0.000  0.000  0.000  0.000   0.00   0.00   0.00      0      0      0.0   0.00   0.00   0.16    0.00    0.00    0.00    0.00    0.00    0.00      0      0      0       0       0 17.19
 2013 138    34     5    2.0      1   0.00     12     12      0     12     25     25      0    0.0  0.000      0      0  0.000  0.000  0.012  0.000  0.000  0.000  0.000   4.40   0.00   0.00      0      0     32.8   0.00   0.00   0.18    0.25    0.12    0.01    0.00    0.00    0.00      0      0      0       0       0 20.20
 2013 139    35     6    2.0      1   0.01     12     12      0     13     25     25      0    0.0  0.000      0      0  0.000  0.000  0.012  0.000  0.000  0.000  0.000   4.40   0.00   0.00      0      0     61.3   0.00   0.00   0.20    0.25    0.13    0.01    0.00    0.00    0.00      0      0      0       0       0 17.62
 2013 140    36     7    3.0      1   0.01     12     12      0     14     25     25      0    0.0  0.000      0      0  0.000  0.000  0.002  0.000  0.000  0.000  0.000   4.40   0.00   0.00      0      0     97.1   0.01   0.00   0.22    0.27    0.14    0.01    0.00    0.00    0.00      0      0      0       0       0 19.27
 2013 141    37     8    3.0      1   0.02     12     12      0     15     25     25      0    0.0  0.000      0      0  0.000  0.000  0.000  0.000  0.000  0.000  0.000   4.40   0.00   0.00      0      0    132.8   0.01   0.00   0.24    0.28    0.14    0.01    0.00    0.00    0.00      0      0      0       0       0 17.57
 2013 142    38     9    4.0      1   0.03     12     12      0     16     25     25      0    0.0  0.000      0      0  0.000  0.000  0.000  0.000  0.000  0.000  0.000   4.40   0.00   0.00      0      0    272.5   0.02   0.00   0.26    0.29    0.16    0.02    0.00    0.00    0.00      0      0      0       0       0 19.69
 2013 143    39    10    4.0      1   0.05     15     12      0     18     28     28      0    0.0  0.000      0      0  0.000  0.000  0.000  0.000  0.000  0.000  0.000   3.92   0.00   0.00      0      0    328.6   0.03   0.00   0.28    0.30    0.17    0.03    0.00    0.00    0.00      0      0      0       0       0 16.89
 2013 144    40    11    5.0      1   0.07     24     12      0     19     36     36      0    0.0  0.000      0      0  0.000  0.000  0.000  0.000  0.000  0.000  0.000   3.14   0.00   0.00      0      0    300.2   0.04   0.00   0.29    0.31    0.18    0.04    0.00    0.00    0.00      0      0      0       0       0 18.36
 2013 145    41    12    5.0      1   0.10     36     12      0     23     48     48      0    0.0  0.000      0      0  0.000  0.000  0.000  0.000  0.000  0.000  0.000   3.07   0.00   0.00      0      0    277.0   0.05   0.00   0.31    0.34    0.20    0.06    0.00    0.00    0.00      0      0      0       0       0 19.75
 2013 146    42    13    5.0      1   0.12     48     12      0     25     60     60      0    0.0  0.000      0      0  0.000  0.000  0.000  0.000  0.000  0.000  0.000   3.19   0.00   0.00      0      0    261.1   0.07   0.00   0.32    0.35    0.21    0.08    0.00    0.00    0.00      0      0      0       0       0 17.10
 2013 147    43    14    6.0      1   0.16     64     12      0     32     77     77      0    0.0  0.000      0      0  0.000  0.000  0.000  0.000  0.000  0.000  0.000   3.06   0.00   0.00      0      0    245.5   0.08   0.00   0.33    0.39    0.25    0.12    0.00    0.00    0.00      0      0      0       0       0 20.00
 2013 148    44    15    6.0      2   0.20     80     12      0     40     93     93      0    0.0  0.000      0      0  0.000  0.000  0.000  0.000  0.000  0.000  0.000   3.16   0.00   0.00      0      0    250.3   0.11   0.00   0.34    0.42    0.29    0.18    0.00    0.00    0.00      0      0      0       0       1 19.86
 2013 149    45    16    7.0      2   0.25    104     12      0     52    116    116      0    0.0  0.000      0      0  0.000  0.000  0.009  0.000  0.000  0.000  0.000   3.10   0.00   0.00      0      0    237.3   0.13   0.00   0.36    0.49    0.36    0.26    0.01    0.00    0.00      0      0      0       0       1 18.85
 2013 150    46    17    7.0      2   0.30    132     12      0     62    145    145      0    0.0  0.000      0      0  0.000  0.000  0.000  0.000  0.000  0.000  0.000   3.09   0.00   0.00      0      0    225.8   0.16   0.00   0.38    0.55    0.41    0.33    0.01    0.00    0.00      0      0      0       0       1 18.75
 2013 151    47    18    8.0      2   0.36    166     12      0     75    178    178      0    0.0  0.000      0      0  0.000  0.000  0.000  0.000  0.000  0.000  0.000   3.08   0.00   0.00      0      0    215.4   0.19   0.00   0.40    0.65    0.47    0.41    0.03    0.00    0.00      0      0      0       0       1 19.15
 2013 152    48    19    8.0      2   0.42    206     12      0     98    218    218      0    0.0  0.000      0      0  0.000  0.000  0.000  0.000  0.000  0.000  0.000   3.78   0.00   0.00      0      0    206.0   0.23   0.00   0.42    0.78    0.59    0.55    0.05    0.00    0.00      0      0      0       0       2 19.55
 2013 153    49    20    8.0      2   0.50    251     12      0    125    263    263      0    0.0  0.000      0      0  0.000  0.000  0.000  0.000  0.000  0.000  0.000   3.73   0.00   0.00      0      0    197.7   0.27   0.00   0.44    0.95    0.72    0.70    0.08    0.00    0.00      0      0      0       0       2 19.15
 2013 154    50    21    9.0      2   0.57    300     12      0    144    313    313      0    0.0  0.000      0      0  0.000  0.000  0.000  0.000  0.000  0.000  0.000   3.69   0.00   0.00      0      0    190.4   0.31   0.00   0.46    1.09    0.81    0.81    0.11    0.00    0.00      0      0      0       0       3 18.58
 2013 155    51    22    9.0      3   0.65    358     13      0    176    370    370      0    0.0  0.000      0      0  0.000  0.000  0.000  0.000  0.000  0.000  0.000   3.61   0.00   0.00      0      0    183.2   0.35   0.00   0.48    1.32    0.94    0.96    0.16    0.00    0.00      0      0      0       0       4 19.19
 2013 156    52    23   10.0      3   0.75    423     13      0    219    437    437      0    0.0  0.000      0      0  0.000  0.000  0.000  0.000  0.000  0.000  0.000   3.54   0.00   0.00      0      0    177.7   0.41   0.00   0.50    1.63    1.10    1.17    0.26    0.00    0.00      0      0      0       0       4 19.49
 2013 157    53    24   10.0      3   0.85    493     16      0    245    508    508      0    0.0  0.000      0      0  0.000  0.000  0.000  0.000  0.000  0.000  0.000   3.48   0.00   0.00      0      0    172.8   0.46   0.00   0.52    1.83    1.18    1.27    0.34    0.00    0.00      0      0      0       0       6 18.50
 2013 158    54    25   11.0      3   0.96    572     20      0    289    592    592      0    0.0  0.000      0      0  0.000  0.000  0.000  0.000  0.000  0.000  0.000   3.43   0.00   0.00      0      0    168.1   0.52   0.00   0.54    2.14    1.26    1.41    0.52    0.00    0.00      0      0      0       0       7 18.91
 2013 159    55    26   11.0      3   1.07    656     26      0    339    682    682      0    0.0  0.000      0      0  0.000  0.000  0.000  0.000  0.000  0.000  0.000   3.32   0.00   0.00      0      0    163.9   0.58   0.00   0.56    2.13    1.30    1.45    0.85    0.05    0.00      0      0      0       0       8 17.95
 2013 160    56    27   11.0      3   1.20    753     38      0    389    791    791      0    0.0  0.000      0      0  0.000  0.000  0.000  0.000  0.000  0.000  0.000   3.14   0.00   0.00      0      0    159.7   0.65   0.00   0.58    2.12    1.34    1.49    1.14    0.14    0.00      0      0      0       0      10 19.00
 2013 161    57    28   12.0      3   1.35    870     56      0    407    926    926      0    0.0  0.000      0      0  0.000  0.000  0.000  0.000  0.000  0.000  0.000   2.95   0.00   0.00      0      0    155.4   0.73   0.00   0.60    2.11    1.35    1.50    1.23    0.19    0.00      0      0      0       0      12 18.50
 2013 162    58    29   12.0      3   1.50    989     80      0    430   1068   1068      0    0.0  0.000      0      0  0.000  0.000  0.000  0.000  0.000  0.000  0.000   2.73   0.00   0.00      0      0    151.7   0.81   0.00   0.62    2.10    1.37    1.52    1.33    0.26    0.00      0      0      0       0      14 18.25
 2013 163    59    30   13.0      3   1.63   1101    108      0    485   1209   1209      0    0.0  0.000      0      0  0.000  0.098  0.004  0.000  0.000  0.000  0.000   3.17   0.00   0.00      0      0    148.5   0.88   0.00   0.64    3.74    1.38    1.53    1.38    0.31    0.00      0      0      0       0      16 18.60
 2013 164    60    31   13.0      3   1.80   1236    151      0    537   1387   1387      0    0.0  0.000      0      0  0.000  0.000  0.000  0.000  0.000  0.000  0.000   3.10   0.00   0.00      0      0    145.3   0.97   0.00   0.66    4.00    1.41    1.55    1.48    0.40    0.00      0      0      0       0      18 19.80
 2013 165    61    32   14.0      3   1.92   1342    192      0    612   1534   1534      0    0.0  0.000      0      0  0.000  0.211  0.000  0.000  0.000  0.000  0.000   2.87   0.00   0.00      0      0    143.0   1.03   0.00   0.68    3.98    1.49    1.63    1.74    0.68    0.00      0      0      0       0      21 19.25
 2013 166    62    33   14.0      3   2.02   1433    235      0    681   1668   1668      0    0.0  0.000      0      0  0.000  0.334  0.000  0.000  0.000  0.000  0.000   2.68   0.00   0.00      0      0    141.2   1.09   0.00   0.70    3.96    1.58    1.72    1.97    0.95    0.00      0      0      0       0      24 19.40
[...]
 2014 165    68    37   16.0      3   2.80   2138    818      0    485   2956   2958      0    0.0  0.000      3      0  0.000  0.000  0.000  0.000  0.000  0.000  0.000   2.76   0.00   0.00      0      3    130.8   1.51   0.00   0.79    3.54    2.58    2.16    0.57    0.22    0.00      0      0      0       0      26 19.00
 2014 166    69    38   16.0      3   2.92   2259   1018      0    501   3276   3284      0    0.0  0.000      8      0  0.000  0.000  0.000  0.000  0.000  0.000  0.000   2.71   0.00   0.00      0      8    129.4   1.57   0.00   0.81    3.62    2.67    2.21    0.58    0.24    0.00      0      0      0       0      29 19.80
 2014 167    70    39   17.0      3   3.04   2369   1226      0    516   3595   3612      0    0.0  0.000     17      0  0.000  0.000  0.000  0.000  0.000  0.000  0.000   2.68   0.00   0.00      0     17    128.2   1.60   0.00   0.83    3.70    2.75    2.26    0.60    0.27    0.01      0      0      0       0      31 17.85
 2014 168    71    40   17.0      3   3.12   2450   1395      0    528   3845   3870      0    0.0  0.000     25      0  0.000  0.000  0.000  0.000  0.000  0.000  0.000   2.63   0.00   0.01      0     25    127.4   1.60   0.00   0.85    3.76    2.81    2.29    0.61    0.29    0.02      0      0      0       0      34 17.85
 2014 169    72    41   17.0      3   3.21   2533   1582      0    541   4115   4154      0    0.0  0.000     39      0  0.000  0.000  0.000  0.000  0.000  0.000  0.000   2.60   0.00   0.01      0     39    126.6   1.60   0.00   0.87    3.77    2.87    2.33    0.63    0.31    0.03      0      0      0       0      37 17.60
 2014 170    73    42   18.0      3   3.29   2617   1773      0    563   4390   4454      0    0.0  0.000     64      0  0.000  0.000  0.000  0.000  0.000  0.000  0.000   2.56   0.00   0.01      0     64    125.7   1.60   0.00   0.88    3.78    2.96    2.40    0.66    0.35    0.06      0      0      0       0      39 16.85
 2014 171    74    43   18.0      3   3.37   2694   1956      0    576   4650   4743      0    0.0  0.000     93      0  0.000  0.000  0.000  0.000  0.000  0.000  0.000   2.53   0.00   0.02      0     93    125.0   1.60   0.00   0.90    3.77    3.00    2.43    0.68    0.38    0.08      0      0      0       0      42 17.60
 2014 172    75    44   19.0      3   3.44   2761   2123      0    588   4884   5009      0    0.0  0.000    124      0  0.000  0.000  0.000  0.000  0.000  0.000  0.000   2.49   0.00   0.02      0    124    124.4   1.60   0.00   0.92    3.75    3.02    2.45    0.70    0.40    0.11      0      0      0       0      45 19.40
 2014 173    76    45   19.0      3   3.51   2836   2297      0    602   5133   5314      0    0.0  0.000    181      0  0.000  0.000  0.000  0.000  0.000  0.000  0.000   2.45   0.00   0.03      0    181    123.8   1.60   0.00   0.94    3.97    3.03    2.45    0.72    0.43    0.14      0      0      0       0      48 20.01
 2014 174    77    46   19.0      3   3.57   2891   2426      0    612   5317   5542      0    0.0  0.000    225      0  0.000  0.000  0.000  0.000  0.000  0.000  0.000   2.41   0.00   0.04      0    225    123.3   1.60   0.00   0.96    4.00    3.03    2.45    0.73    0.44    0.16      0      0      0       0      51 19.05
 2014 175    78    47   19.0      3   3.64   2971   2551      0    635   5522   5864      0    0.0  0.000    342      0  0.000  0.000  0.000  0.000  0.000  0.000  0.000   2.40   0.00   0.06      0    342    122.7   1.60   0.00   0.98    4.00    3.13    2.48    0.75    0.47    0.19      0      0      0       0      54 18.95
 2014 176    79    48   19.0      3   3.71   3043   2653      0    648   5695   6156      0    0.0  0.000    461      0  0.000  0.000  0.000  0.000  0.000  0.000  0.000   2.36   0.00   0.07      0    461    122.1   1.60   0.00   1.00    4.00    3.21    2.49    0.76    0.48    0.21      0      0      0       0      57 18.15
 2014 177    80    49   19.0      3   3.79   3121   2729      0    663   5850   6473      0    0.0  0.000    623      0  0.000  0.000  0.000  0.000  0.000  0.000  0.000   2.34   0.00   0.10      0    623    121.5   1.60   0.00   1.00    4.00    3.31    2.50    0.77    0.49    0.23      0      0      0       0      60 18.65
 2014 178    81    50   19.0      3   3.87   3197   2780      0    677   5978   6781      0    0.0  0.000    803      0  0.000  0.000  0.000  0.000  0.000  0.000  0.000   2.31   0.00   0.12      0    803    120.9   1.60   0.00   1.00    4.00    3.40    2.52    0.78    0.50    0.25      0      0      0       0      64 18.20
 2014 179    82    51   19.0      4   3.68   3163   2903      0    688   6067   7096      0    0.0  0.000   1029      0  0.000  0.000  0.000  0.000  0.000  0.000  0.000   2.30   0.00   0.14      0   1029    116.2   1.60   0.00   1.00    4.00    3.49    2.53    0.78    0.51    0.27      0      0      0       0      67 18.95
 2014 180    83    52   19.0      4   3.66   3126   2996      0    699   6122   7375      0    0.0  0.000   1252      0  0.000  0.000  0.000  0.000  0.000  0.000  0.000   2.28   0.00   0.17      0   1252    117.0   1.60   0.00   1.00    4.00    3.57    2.55    0.79    0.51    0.28      0      0      0       0      67 19.05
 2014 181    84    53   19.0      4   3.64   3086   3056      0    706   6142   7573      0    0.0  0.000   1431      0  0.000  0.000  0.000  0.000  0.000  0.000  0.000   2.27   0.00   0.19      0   1431    118.0   1.60   0.00   1.00    4.00    3.61    2.57    0.79    0.52    0.29      0      0      0       0      67 16.90
 2014 182    85    54   19.0      4   3.62   3043   3109      0    713   6153   7775      0    0.0  0.000   1623      0  0.000  0.000  0.000  0.000  0.000  0.000  0.000   2.27   0.00   0.21      0   1623    119.1   1.60   0.00   1.00    4.00    3.66    2.60    0.79    0.52    0.30      0      0      0       0      67 17.80
 2014 183    86    55   19.0      4   3.61   2998   3172      0    724   6170   8062      0    0.0  0.000   1892      0  0.000  0.000  0.000  0.000  0.000  0.000  0.000   2.26   0.00   0.23      0   1892    120.3   1.60   0.00   1.00    4.00    3.73    2.64    0.79    0.53    0.31      0      0      0       0      67 18.50
 2014 184    87    56   19.0      4   3.59   2949   3224      0    733   6173   8321      0    0.0  0.000   2148      0  0.000  0.000  0.000  0.000  0.000  0.000  0.000   2.26   0.00   0.26      0   2148    121.7   1.60   0.00   1.00    4.00    3.79    2.68    0.80    0.53    0.32      0      0      0       0      67 18.80
 2014 185    88    57   19.0      4   3.57   2897   3270      0    743   6167   8574      0    0.0  0.000   2407      0  0.000  0.000  0.000  0.000  0.000  0.000  0.000   2.26   0.00   0.28      0   2407    123.2   1.60   0.00   1.00    4.00    3.85    2.72    0.80    0.54    0.33      0      0      0       0      67 19.40
 2014 186    89    58   19.0      4   3.55   2842   3327      0    757   6169   8917      0    0.0  0.000   2748      0  0.000  0.000  0.000  0.000  0.000  0.000  0.000   2.26   0.00   0.31      0   2748    124.9   1.60   0.00   1.00    4.00    3.93    2.77    0.81    0.54    0.34      0      0      0       0      67 20.04
 2014 187    90    59   19.0      4   3.53   2783   3372      0    767   6156   9195      0    0.0  0.000   3039      0  0.000  0.000  0.000  0.000  0.000  0.000  0.000   2.27   0.00   0.33      0   3039    126.8   1.60   0.00   1.00    4.00    3.99    2.83    0.81    0.55    0.36      0      0      0       0      67 20.50
 2014 188    91    60   19.0      5   3.47   2783   3372    159    794   6156   9353   2730    5.8  0.017   3198      6  0.000  0.000  0.000  0.000  0.000  0.000  0.000   2.22   4.96   0.34      0   3198    124.7   1.60   0.00   1.00    4.00    4.00    2.97    0.82    0.56    0.38      0      0      0       0      67 19.85
 2014 189    92    61   19.0      5   3.46   2783   3372    336    805   6156   9531   2730   12.3  0.035   3375      6  0.000  0.000  0.000  0.000  0.000  0.000  0.000   2.17   9.96   0.35      0   3375    124.5   1.60   0.00   1.00    4.00    4.00    3.03    0.82    0.57    0.39      0      0      0       0      67 18.45
 2014 190    93    62   19.0      5   3.46   2783   3372    502    854   6156   9697   2730   18.4  0.052   3542      6  0.000  0.000  0.000  0.000  0.000  0.000  0.000   2.12  14.18   0.37      0   3542    124.2   1.60   0.00   1.00    4.00    4.00    3.29    0.85    0.60    0.44      0      0      0       0      67 19.42
 2014 191    94    63   19.0      5   3.45   2783   3372    680    879   6156   9875   2730   24.9  0.069   3719      6  0.000  0.000  0.000  0.000  0.000  0.000  0.000   2.07  18.28   0.38      0   3719    123.8   1.60   0.00   1.00    4.00    4.00    3.41    0.86    0.61    0.47      0      0      0       0      67 18.60
 2014 192    95    64   19.0      5   3.43   2783   3372    857    880   6156  10052   2730   31.4  0.085   3896      6  0.000  0.000  0.000  0.000  0.000  0.000  0.000   2.02  22.00   0.39      0   3896    123.4   1.60   0.00   1.00    4.00    4.00    3.43    0.86    0.61    0.47      0      0      0       0      67 17.50
 2014 193    96    65   19.0      5   3.42   2783   3372   1035    913   6156  10229   2730   37.9  0.101   4074      6  0.000  0.000  0.000  0.000  0.000  0.000  0.000   1.97  25.40   0.40      0   4074    122.9   1.60   0.00   1.00    4.00    4.00    3.60    0.88    0.63    0.50      0      0      0       0      67 17.95
 2014 194    97    66   19.0      5   3.41   2783   3372   1204    969   6156  10399   2730   44.1  0.116   4244      6  0.000  0.000  0.000  0.000  0.000  0.000  0.000   1.92  28.38   0.41      0   4244    122.3   1.60   0.00   1.00    4.00    4.00    3.92    0.90    0.67    0.55      0      0      0       0      67 19.35
 2014 195    98    67   19.0      5   3.39   2783   3372   1382   1021   6156  10577   2730   50.6  0.131   4421      6  0.000  0.000  0.000  0.000  0.000  0.000  0.000   1.87  31.25   0.42      0   4421    121.7   1.60   0.00   1.00    4.00    4.00    4.00    0.93    0.70    0.61      0      0      0       0      67 18.65
 2014 196    99    68   19.0      5   3.37   2783   3372   1550   1062   6156  10745   2730   56.8  0.144   4589      6  0.000  0.000  0.000  0.000  0.000  0.000  0.000   1.83  33.78   0.43      0   4589    121.0   1.60   0.00   1.00    4.00    4.00    4.00    0.95    0.72    0.65      0      0      0       0      67 19.40
 2014 197   100    69   19.0      5   3.34   2783   3372   1693   1094   6156  10888   2730   62.0  0.156   4733      6  0.000  0.000  0.000  0.000  0.000  0.000  0.000   1.79  35.78   0.43      0   4733    120.1   1.60   0.00   1.00    4.00    4.00    4.00    0.97    0.74    0.68      0      0      0       0      67 20.48
 2014 198   101    70   19.0      5   3.31   2783   3372   1853   1127   6156  11048   2730   67.9  0.168   4892      6  0.000  0.000  0.000  0.000  0.000  0.000  0.000   1.74  37.88   0.44      0   4892    119.1   1.60   0.00   1.00    4.00    4.00    4.00    0.99    0.76    0.71      0      0      0       0      67 19.80
 2014 199   102    71   19.0      5   3.28   2783   3372   2006   1187   6156  11201   2730   73.5  0.179   5045      6  0.000  0.000  0.000  0.000  0.000  0.000  0.000   1.70  39.76   0.45      0   5045    118.0   1.60   0.00   1.00    3.99    4.00    4.00    1.02    0.80    0.77      0      0      0       0      67 20.06
 2014 200   103    72   19.0      5   3.25   2783   3372   2161   1226   6156  11356   2730   79.2  0.190   5201      6  0.000  0.000  0.000  0.000  0.000  0.000  0.000   1.65  41.56   0.46      0   5201    116.8   1.60   0.00   1.00    3.99    4.00    4.00    1.04    0.83    0.81      0      0      0       0      67 20.00
 2014 201   104    73   19.0      5   3.22   2783   3372   2334   1249   6156  11529   2730   85.5  0.202   5373      6  0.000  0.000  0.000  0.000  0.000  0.000  0.000   1.60  43.44   0.47      0   5373    115.5   1.60   0.00   1.00    3.99    4.00    4.00    1.05    0.84    0.84      0      0      0       0      67 19.20
 2014 202   105    74   19.0      5   3.18   2783   3372   2493   1297   6156  11688   2730   91.3  0.213   5532      6  0.000  0.000  0.000  0.000  0.000  0.000  0.000   1.48  45.06   0.47      0   5532    114.1   1.60   0.00   1.00    4.00    4.00    4.00    1.08    0.87    0.89      0      0      0       0      73 19.68
 2014 203   106    75   19.0      5   3.13   2783   3372   2640   1359   6156  11835   2730   96.7  0.223   5680      6  0.000  0.000  0.000  0.000  0.000  0.000  0.000   1.45  46.49   0.48      0   5680    112.5   1.60   0.00   1.00    4.00    4.00    4.00    1.12    0.91    0.95      0      0      0       0      80 20.30
 2014 204   107    76   19.0      5   3.08   2783   3372   2806   1413   6156  12000   2730  102.8  0.234   5845      6  0.000  0.063  0.000  0.000  0.000  0.000  0.000   1.42  48.00   0.49      0   5845    110.8   1.60   0.00   1.00    3.98    4.00    4.00    1.15    0.95    1.01      0      0      0       0      87 19.55
 2014 205   108    77   19.0      5   3.03   2783   3372   2953   1463   6156  12148   2730  108.2  0.243   5992      6  0.000  0.000  0.000  0.000  0.000  0.000  0.000   1.39  49.28   0.49      0   5992    108.9   1.60   0.00   1.00    3.97    4.00    4.00    1.18    0.98    1.06      0      0      0       0      94 20.18
 2014 206   109    78   19.0      5   2.98   2783   3372   3115   1519   6156  12310   2730  114.1  0.253   6154      6  0.000  0.000  0.000  0.000  0.000  0.000  0.000   1.37  50.62   0.50      0   6154    106.9   1.60   0.00   1.00    3.95    4.00    4.00    1.21    1.02    1.12      0      0      0       0     101 19.61
 2014 207   110    79   19.0      5   2.91   2783   3372   3272   1547   6156  12467   2730  119.9  0.262   6312      6  0.000  0.000  0.000  0.000  0.000  0.000  0.000   1.33  51.85   0.51      0   6312    104.7   1.60   0.00   1.00    3.94    4.00    4.00    1.23    1.04    1.15      0      0      0       0     109 19.88
 2014 208   111    80   19.0      5   2.85   2783   3372   3444   1567   6156  12639   2730  126.2  0.273   6484      6  0.000  0.000  0.000  0.000  0.000  0.000  0.000   1.30  53.12   0.51      0   6484    102.5   1.60   0.00   1.00    3.92    4.00    4.00    1.24    1.05    1.18      0      0      0       0     116 19.25
 2014 209   112    81   19.0      5   2.78   2783   3372   3594   1616   6156  12789   2730  131.7  0.281   6633      6  0.000  0.054  0.000  0.000  0.000  0.000  0.000   1.28  54.18   0.52      0   6633    100.0   1.60   0.00   1.00    3.91    4.00    4.00    1.27    1.09    1.23      0      0      0       0     124 19.96
 2014 210   113    82   19.0      5   2.71   2783   3372   3746   1665   6156  12941   2730  137.2  0.289   6785      6  0.000  0.000  0.000  0.000  0.000  0.000  0.000   1.26  55.21   0.52      0   6785     97.3   1.60   0.00   1.00    3.89    4.00    4.00    1.30    1.13    1.29      0      0      0       0     132 20.04
 2014 211   114    83   19.0      5   2.63   2783   3372   3918   1713   6156  13113   2730  143.5  0.299   6957      6  0.000  0.000  0.000  0.000  0.000  0.000  0.000   1.24  56.31   0.53      0   6957     94.5   1.60   0.00   1.00    3.88    4.00    4.00    1.33    1.16    1.35      0      0      0       0     141 19.25
 2014 212   115    84   19.0      5   2.55   2783   3372   4073   1748   6156  13268   2730  149.2  0.307   7112      6  0.000  0.000  0.000  0.000  0.000  0.000  0.000   1.20  57.27   0.54      0   7112     91.5   1.60   0.00   1.00    3.86    4.00    4.00    1.36    1.19    1.39      0      0      0       0     149 19.92
 2014 213   116    85   19.0      5   2.46   2783   3372   4237   1787   6156  13432   2730  155.2  0.315   7276      6  0.000  0.000  0.000  0.000  0.000  0.000  0.000   1.18  58.23   0.54      0   7276     88.3   1.60   0.00   1.00    3.84    4.00    4.00    1.38    1.22    1.44      0      0      0       0     158 19.34
 2014 214   117    86   19.0      5   2.37   2783   3372   4405   1811   6156  13599   2730  161.4  0.324   7444      6  0.000  0.000  0.000  0.000  0.000  0.000  0.000   1.16  59.17   0.55      0   7444     85.0   1.60   0.00   1.00    3.83    4.00    4.00    1.40    1.24    1.47      0      0      0       0     167 19.45
 2014 215   118    87   19.0      5   2.27   2783   3372   4582   1832   6156  13777   2730  167.9  0.333   7621      6  0.000  0.000  0.000  0.000  0.000  0.000  0.000   1.14  60.12   0.55      0   7621     81.7   1.60   0.00   1.00    3.81    4.00    4.00    1.41    1.25    1.50      0      0      0       0     176 18.20
 2014 216   119    88   19.0      5   2.17   2783   3372   4753   1867   6156  13948   2730  174.1  0.341   7792      6  0.000  0.000  0.000  0.000  0.000  0.000  0.000   1.12  61.00   0.56      0   7792     78.0   1.60   0.00   1.00    3.79    4.00    4.00    1.43    1.28    1.54      0      0      0       0     185 19.23
 2014 217   120    89   19.0      5   2.08   2783   3317   4930   1857   6100  14070   2730  180.6  0.350   7969      6  0.000  0.000  0.000  0.000  0.000  0.000  0.000   1.08  61.86   0.57      0   7969     74.6   1.60   0.00   1.00    3.79    4.00    4.00    1.43    1.28    1.54      0      0      0       0     185 16.75
 2014 218   121    90   19.0      5   1.96   2783   3371   5104   1875   6155  14298   2730  187.0  0.357   8144      6  0.000  0.000  0.000  0.000  0.000  0.000  0.000   1.06  62.68   0.57      0   8144     70.6   1.60   0.00   1.00    3.78    4.00    4.00    1.45    1.30    1.56      0      0      0       0     194 19.15
 2014 219   122    91   19.0      5   1.84   2783   3372   5254   1892   6156  14449   2730  192.5  0.364   8293      6  0.000  0.000  0.000  0.000  0.000  0.000  0.000   1.05  63.35   0.57      0   8293     66.1   1.60   0.00   1.00    3.76    4.00    4.00    1.46    1.31    1.59      0      0      0       0     204 20.20
 2014 220   123    92   19.0      5   1.71   2783   3372   5416   1911   6156  14611   2730  198.4  0.371   8455      6  0.000  0.000  0.000  0.000  0.000  0.000  0.000   1.03  64.06   0.58      0   8455     61.5   1.60   0.00   1.00    3.74    4.00    4.00    1.47    1.33    1.62      0      0      0       0     213 19.70
 2014 221   124    93   19.0      5   1.57   2783   3372   5569   1928   6156  14764   2730  204.0  0.377   8608      6  0.000  0.000  0.000  0.000  0.000  0.000  0.000   1.01  64.69   0.58      0   8608     56.6   1.60   0.00   1.00    3.72    4.00    4.00    1.49    1.34    1.64      0      0      0       0     223 20.04
 2014 222   125    94   19.0      5   1.57   2783   3372   5569   1928   6156  14764   2730  204.0  0.377   8608      6  0.000  0.000  0.000  0.000  0.000  0.000  0.000   1.01  64.69   0.58      0   8608     56.6   1.60   0.00   1.00    3.71    4.00    4.00    1.50    1.36    1.67      0      0      0       0     223 20.12
 2014 223   126    95   19.0      5   1.57   2783   3372   5569   1928   6156  14764   2730  204.0  0.377   8608      6  0.000  0.000  0.000  0.000  0.000  0.000  0.000   1.01  64.69   0.58      0   8608     56.6   1.60   0.00   1.00    3.69    4.00    4.00    1.51    1.37    1.69      0      0      0       0     223 21.21
 2014 224   127    96   19.0      5   1.57   2783   3372   5569   1928   6156  14764   2730  204.0  0.377   8608      6  0.000  0.000  0.000  0.000  0.000  0.000  0.000   1.01  64.69   0.58      0   8608     56.6   1.60   0.00   1.00    3.68    4.00    4.00    1.53    1.39    1.72      0      0      0       0     223  0.00
 2014 225   128    97   19.0      5   1.57   2783   3372   5569   1928   6156  14764   2730  204.0  0.377   8608      6  0.000  0.000  0.000  0.000  0.000  0.000  0.000   1.01  64.69   0.58      0   8608     56.6   1.60   0.00   1.00    3.66    4.00    4.00    1.54    1.40    1.74      0      0      0       0     223 19.90
