*SIMULATION OVERVIEW FILE

*DSSAT Cropping System Model Ver. 4.6.1.000 -release      MAY 05, 2017; 11:09:12
                                                                                
*RUN   1        : P1                        MZCER046 3\000003    1              
 MODEL          : MZCER046 - Maize                                              
 EXPERIMENT     : 3\000003 BN Calibracion Cerete 2013                           
 DATA PATH      : C:\L\0\00000                                                  
 TREATMENT  1   : P1                        MZCER046                            
                                                                                
                                                                                
 CROP           : Maize            CULTIVAR : PIO 30F35HRB_    ECOTYPE :IB0001  
 STARTING DATE  : APR 22 2013                                                   
 PLANTING DATE  : MAY  7 2013        PLANTS/m2 :  6.2     ROW SPACING :  80.cm  
 WEATHER        : CCCR   2013                                                   
 SOIL           : CCCERE2017     TEXTURE : CL    -   Suelo Cerete Calibracio    
 SOIL INITIAL C : DEPTH:100cm EXTR. H2O: 82.9mm  NO3: 37.9kg/ha  NH4: 67.2kg/ha 
 WATER BALANCE  : RAINFED                                                       
 IRRIGATION     : NOT IRRIGATED                                                 
 NITROGEN BAL.  : SOIL-N & N-UPTAKE SIMULATION; NO N-FIXATION                   
 N-FERTILIZER   :      142 kg/ha IN     5 APPLICATIONS                          
 RESIDUE/MANURE : INITIAL :     0 kg/ha ;       0 kg/ha IN     0 APPLICATIONS   
 ENVIRONM. OPT. : DAYL=    0.00  SRAD=    0.00  TMAX=    0.00  TMIN=    0.00    
                  RAIN=    0.00  CO2 =    0.00  DEW =    0.00  WIND=    0.00    
 SIMULATION OPT : WATER   :Y  NITROGEN:Y  N-FIX:N  PHOSPH :N  PESTS  :N         
                  PHOTO   :C  ET      :R  INFIL:S  HYDROL :R  SOM    :G         
                  CO2 396ppm  NSWIT   :1  EVAP :S  SOIL   :2  STEMP  :D         
 MANAGEMENT OPT : PLANTING:R  IRRIG   :N  FERT :D  RESIDUE:R  HARVEST:M         
                  WEATHER :M  TILLAGE :N                                        
                                                                                
*SUMMARY OF SOIL AND GENETIC INPUT PARAMETERS                                   
                                                                                
   SOIL LOWER UPPER   SAT  EXTR  INIT   ROOT   BULK     pH    NO3    NH4    ORG 
  DEPTH LIMIT LIMIT    SW    SW    SW   DIST   DENS                          C  
   cm   cm3/cm3    cm3/cm3    cm3/cm3         g/cm3         ugN/g  ugN/g     %  
------------------------------------------------------------------------------- 
  0-  5 0.313 0.407 0.502 0.094 0.424   1.00   1.53   7.00   3.78   4.42   1.32 
  5- 15 0.313 0.407 0.502 0.094 0.424   1.00   1.53   7.00   3.78   4.42   1.32 
 15- 26 0.313 0.407 0.502 0.094 0.424   1.00   1.53   7.00   3.78   4.42   1.32 
 26- 51 0.318 0.397 0.511 0.079 0.419   0.37   1.49   7.60   2.27   4.49   0.44 
 51- 75 0.318 0.397 0.511 0.079 0.418   0.37   1.49   7.60   1.98   4.50   0.44 
 75-100 0.318 0.397 0.511 0.079 0.418   0.37   1.49   7.60   1.98   4.50   0.44 
                                                                                
TOT-100  31.7  40.0  50.9   8.3  42.0  <--cm   -  kg/ha-->   37.9   67.2 101024 
SOIL ALBEDO    : 0.09      EVAPORATION LIMIT : 6.00         MIN. FACTOR  : 1.00 
RUNOFF CURVE # :73.00      DRAINAGE RATE     : 0.05         FERT. FACTOR : 1.00 
                                                                                
 Maize      CULTIVAR :000003-PIO 30F35HRB_      ECOTYPE :IB0001                 
 P1     : 180.00  P2     : 0.3000  P5     : 850.00                              
 G2     : 800.00  G3     :  6.000  PHINT  : 43.000                              


*SIMULATED CROP AND SOIL STATUS AT MAIN DEVELOPMENT STAGES

 RUN NO.     1     P1                      

        CROP GROWTH     BIOMASS         LEAF   CROP N     STRESS      STRESS                                           
   DATE  AGE STAGE        kg/ha    LAI   NUM  kg/ha  %   H2O  Nitr Phos1 Phos2  RSTG                                   
 ------  --- ----------   -----  -----  ----  ---  ---  ----  ----  ----  ----  ----                                   
 22 APR    0 Start Sim        0   0.00   0.0    0  0.0  0.00  0.00  0.00  0.00     7
  7 MAY    0 Sowing           0   0.00   0.0    0  0.0  0.00  0.00  0.00  0.00     8
  8 MAY    1 Germinate        0   0.00   0.0    0  0.0  0.00  0.00  0.00  0.00     9
 12 MAY    5 Emergence       25   0.00   2.3    1  4.4  0.00  0.01  0.00  0.00     1
 21 MAY   14 End Juveni      93   0.20   7.2    3  3.5  0.00  0.00  0.00  0.00     2
 28 MAY   21 Floral Ini     383   0.67  10.6   14  3.6  0.02  0.00  0.00  0.00     3
 26 JUN   50 75% Silkin    6250   3.56  21.8  130  2.1  0.03  0.00  0.00  0.00     4
  5 JUL   59 Beg Gr Fil    8511   3.35  21.8  130  1.5  0.00  0.00  0.00  0.00     5
  6 AUG   91 End Gr Fil   13197   1.46  21.8  144  1.1  0.02  0.00  0.00  0.00     6
  8 AUG   93 Maturity     13197   1.46  21.8  144  1.1  0.00  0.00  0.00  0.00    10
  8 AUG   93 Harvest      13197   1.46  21.8  144  1.1  0.00  0.00  0.00  0.00    10


*MAIN GROWTH AND DEVELOPMENT VARIABLES

@     VARIABLE                                         SIMULATED     MEASURED
      --------                                         ---------     --------
      Anthesis day (dap)                                      50           40
      Physiological maturity day (dap)                        93          113
      Yield at harvest maturity (kg [dm]/ha)                4855         9603
      Number at maturity (no/m2)                            2916         3233
      Unit wt at maturity (g [dm]/unit)                   0.1665        0.308
      Number at maturity (no/unit)                         470.3          517
      Tops weight at maturity (kg [dm]/ha)                 13197        21182
      By-product produced (stalk) at maturity (kg[dm]/ha    8402         8259
      Leaf area index, maximum                              3.69         4.93
      Harvest index at maturity                            0.368         0.45
      Grain N at maturity (kg/ha)                             86          -99
      Tops N at maturity (kg/ha)                             144          -99
      Stem N at maturity (kg/ha)                              58          -99
      Grain N at maturity (%)                                1.8          -99
      Tops weight at anthesis (kg [dm]/ha)                  5884          -99
      Tops N at anthesis (kg/ha)                             125          -99
      Leaf number per stem at maturity                     21.79           19
      Emergence day (dap)                                      5          -99


*ENVIRONMENTAL AND STRESS FACTORS

 |-----Development Phase------|--------------------------------------Environment--------------------------------------|-----------------Stress-----------------|
                              |---------------Average--------------|-----Cumulative-----|--------Count of days--------|          (0=Min, 1=Max Stress)         |
                         Time  Temp  Temp  Temp Solar Photop                Evapo    Pot TMIN TMIN TMAX TMAX TMAX RAIN|----Water----|---Nitrogen--|-Phosphorus-|
                         Span   Max   Min  Mean   Rad  [day]    CO2   Rain  Trans     ET   <    <    >    >    >    >   Photo         Photo         Photo
                         days    øC    øC    øC MJ/m2     hr    ppm     mm     mm     mm  0øC  2øC 30øC 32øC 34øC  0mm  synth Growth  synth Growth  synth Growth
----------------------------------------------------------------------------------------------------------------------------------------------------------------
 Emergence-End Juvenile     9  32.5  25.2  28.9  14.5  24.00  396.1   30.9   38.1   39.1    0    0    9    7    1    4  0.000  0.000  0.002  0.005  0.000  0.000
 End Juvenil-Floral Init    7  32.3  24.0  28.2  14.7  24.00  396.2   12.4   29.6   29.7    0    0    7    5    0    5  0.000  0.019  0.001  0.004  0.000  0.000
 Floral Init-End Lf Grow   29  32.0  24.2  28.1  16.2  24.00  396.3  137.3  120.4  121.9    0    0   29    8    0   18  0.007  0.030  0.000  0.000  0.000  0.000
 End Lf Grth-Beg Grn Fil    9  32.4  23.8  28.1  18.2  24.00  396.4   91.5   40.9   41.1    0    0    9    5    1    5  0.000  0.000  0.000  0.000  0.000  0.000
 Grain Filling Phase       32  32.4  23.7  28.0  18.4  24.00  396.5  110.5  147.8  148.9    0    0   32   20    1   14  0.004  0.021  0.000  0.000  0.000  0.000


 Planting to Harvest       93  32.3  24.0  28.2  16.9  24.00  396.3  446.0  408.3  414.5    0    0   93   51    3   50  0.003  0.018  0.000  0.001  0.000  0.000
----------------------------------------------------------------------------------------------------------------------------------------------------------------


*Resource Productivity
 Growing season length:  93 days 

 Precipitation during growing season       446.0 mm[rain]
   Dry Matter Productivity                  2.96 kg[DM]/m3[rain]          =   29.6 kg[DM]/ha per mm[rain]
   Yield Productivity                       1.09 kg[grain yield]/m3[rain] =   10.9 kg[yield]/ha per mm[rain]

 Evapotranspiration during growing season  408.3 mm[ET]
   Dry Matter Productivity                  3.23 kg[DM]/m3[ET]            =   32.3 kg[DM]/ha per mm[ET]
   Yield Productivity                       1.19 kg[grain yield]/m3[ET]   =   11.9 kg[yield]/ha per mm[ET]

 Transpiration during growing season       263.5 mm[EP]
   Dry Matter Productivity                  5.01 kg[DM]/m3[EP]            =   50.1 kg[DM]/ha per mm[EP]
   Yield Productivity                       1.84 kg[grain yield]/m3[EP]   =   18.4 kg[yield]/ha per mm[EP]

 N applied during growing season            142. kg[N applied]/ha
   Dry Matter Productivity                  92.9 kg[DM]/kg[N applied]
   Yield Productivity                       34.2 kg[yield]/kg[N applied]

 N uptake during growing season              165 kg[N uptake]/ha
   Dry Matter Productivity                  80.0 kg[DM]/kg[N uptake]
   Yield Productivity                       29.4 kg[yield]/kg[N uptake]

--------------------------------------------------------------------------------------------------------------

                     Maize YIELD :     4855 kg/ha    [Dry weight] 

**************************************************************************************************************

*DSSAT Cropping System Model Ver. 4.6.1.000 -release      MAY 05, 2017; 11:09:12
                                                                                
*RUN   2        : P2                        MZCER046 3\000003    2              
 MODEL          : MZCER046 - Maize                                              
 EXPERIMENT     : 3\000003 BN Calibracion Cerete 2013                           
 DATA PATH      : C:\L\0\00000                                                  
 TREATMENT  2   : P2                        MZCER046                            
                                                                                
                                                                                
 CROP           : Maize            CULTIVAR : PIO 30F35HRB_    ECOTYPE :IB0001  
 STARTING DATE  : MAY  6 2013                                                   
 PLANTING DATE  : MAY 21 2013        PLANTS/m2 :  6.2     ROW SPACING :  80.cm  
 WEATHER        : CCCR   2013                                                   
 SOIL           : CCCERE2017     TEXTURE : CL    -   Suelo Cerete Calibracio    
 SOIL INITIAL C : DEPTH:100cm EXTR. H2O: 82.9mm  NO3: 37.9kg/ha  NH4: 67.2kg/ha 
 WATER BALANCE  : RAINFED                                                       
 IRRIGATION     : NOT IRRIGATED                                                 
 NITROGEN BAL.  : SOIL-N & N-UPTAKE SIMULATION; NO N-FIXATION                   
 N-FERTILIZER   :      142 kg/ha IN     5 APPLICATIONS                          
 RESIDUE/MANURE : INITIAL :     0 kg/ha ;       0 kg/ha IN     0 APPLICATIONS   
 ENVIRONM. OPT. : DAYL=    0.00  SRAD=    0.00  TMAX=    0.00  TMIN=    0.00    
                  RAIN=    0.00  CO2 =    0.00  DEW =    0.00  WIND=    0.00    
 SIMULATION OPT : WATER   :Y  NITROGEN:Y  N-FIX:N  PHOSPH :N  PESTS  :N         
                  PHOTO   :C  ET      :R  INFIL:S  HYDROL :R  SOM    :G         
                  CO2 396ppm  NSWIT   :1  EVAP :S  SOIL   :2  STEMP  :D         
 MANAGEMENT OPT : PLANTING:R  IRRIG   :N  FERT :D  RESIDUE:R  HARVEST:M         
                  WEATHER :M  TILLAGE :N                                        
                                                                                
*SUMMARY OF SOIL AND GENETIC INPUT PARAMETERS                                   
                                                                                
   SOIL LOWER UPPER   SAT  EXTR  INIT   ROOT   BULK     pH    NO3    NH4    ORG 
  DEPTH LIMIT LIMIT    SW    SW    SW   DIST   DENS                          C  
   cm   cm3/cm3    cm3/cm3    cm3/cm3         g/cm3         ugN/g  ugN/g     %  
------------------------------------------------------------------------------- 
  0-  5 0.313 0.407 0.502 0.094 0.424   1.00   1.53   7.00   3.78   4.42   1.32 
  5- 15 0.313 0.407 0.502 0.094 0.424   1.00   1.53   7.00   3.78   4.42   1.32 
 15- 26 0.313 0.407 0.502 0.094 0.424   1.00   1.53   7.00   3.78   4.42   1.32 
 26- 51 0.318 0.397 0.511 0.079 0.419   0.37   1.49   7.60   2.27   4.49   0.44 
 51- 75 0.318 0.397 0.511 0.079 0.418   0.37   1.49   7.60   1.98   4.50   0.44 
 75-100 0.318 0.397 0.511 0.079 0.418   0.37   1.49   7.60   1.98   4.50   0.44 
                                                                                
TOT-100  31.7  40.0  50.9   8.3  42.0  <--cm   -  kg/ha-->   37.9   67.2 101024 
SOIL ALBEDO    : 0.09      EVAPORATION LIMIT : 6.00         MIN. FACTOR  : 1.00 
RUNOFF CURVE # :73.00      DRAINAGE RATE     : 0.05         FERT. FACTOR : 1.00 
                                                                                
 Maize      CULTIVAR :000003-PIO 30F35HRB_      ECOTYPE :IB0001                 
 P1     : 180.00  P2     : 0.3000  P5     : 850.00                              
 G2     : 800.00  G3     :  6.000  PHINT  : 43.000                              


*SIMULATED CROP AND SOIL STATUS AT MAIN DEVELOPMENT STAGES

 RUN NO.     2     P2                      

        CROP GROWTH     BIOMASS         LEAF   CROP N     STRESS      STRESS                                           
   DATE  AGE STAGE        kg/ha    LAI   NUM  kg/ha  %   H2O  Nitr Phos1 Phos2  RSTG                                   
 ------  --- ----------   -----  -----  ----  ---  ---  ----  ----  ----  ----  ----                                   
  6 MAY    0 Start Sim        0   0.00   0.0    0  0.0  0.00  0.00  0.00  0.00     7
 21 MAY    0 Sowing           0   0.00   0.0    0  0.0  0.00  0.00  0.00  0.00     8
 22 MAY    1 Germinate        0   0.00   0.0    0  0.0  0.00  0.00  0.00  0.00     9
 26 MAY    5 Emergence       25   0.00   2.2    1  4.4  0.00  0.01  0.00  0.00     1
  4 JUN   14 End Juveni      99   0.21   7.0    3  3.4  0.00  0.00  0.00  0.00     2
 11 JUN   21 Floral Ini     362   0.64  10.4   13  3.6  0.00  0.00  0.00  0.00     3
 10 JUL   50 75% Silkin    6201   3.22  21.7  121  2.0  0.11  0.00  0.00  0.00     4
 18 JUL   58 Beg Gr Fil    8210   3.05  21.7  121  1.5  0.07  0.00  0.00  0.00     5
 19 AUG   90 End Gr Fil   12686   1.39  21.7  137  1.1  0.05  0.00  0.00  0.00     6
 21 AUG   92 Maturity     12686   1.39  21.7  137  1.1  0.00  0.00  0.00  0.00    10
 21 AUG   92 Harvest      12686   1.39  21.7  137  1.1  0.00  0.00  0.00  0.00    10


*MAIN GROWTH AND DEVELOPMENT VARIABLES

@     VARIABLE                                         SIMULATED     MEASURED
      --------                                         ---------     --------
      Anthesis day (dap)                                      50           52
      Physiological maturity day (dap)                        92          112
      Yield at harvest maturity (kg [dm]/ha)                4632          -99
      Number at maturity (no/m2)                            2873         2739
      Unit wt at maturity (g [dm]/unit)                   0.1613        0.286
      Number at maturity (no/unit)                         463.3          438
      Tops weight at maturity (kg [dm]/ha)                 12686          -99
      By-product produced (stalk) at maturity (kg[dm]/ha    8106          -99
      Leaf area index, maximum                              3.22          -99
      Harvest index at maturity                            0.365          -99
      Grain N at maturity (kg/ha)                             82          -99
      Tops N at maturity (kg/ha)                             137          -99
      Stem N at maturity (kg/ha)                              55          -99
      Grain N at maturity (%)                                1.8          -99
      Tops weight at anthesis (kg [dm]/ha)                  5877          -99
      Tops N at anthesis (kg/ha)                             120          -99
      Leaf number per stem at maturity                     21.67           18
      Emergence day (dap)                                      5          -99


*ENVIRONMENTAL AND STRESS FACTORS

 |-----Development Phase------|--------------------------------------Environment--------------------------------------|-----------------Stress-----------------|
                              |---------------Average--------------|-----Cumulative-----|--------Count of days--------|          (0=Min, 1=Max Stress)         |
                         Time  Temp  Temp  Temp Solar Photop                Evapo    Pot TMIN TMIN TMAX TMAX TMAX RAIN|----Water----|---Nitrogen--|-Phosphorus-|
                         Span   Max   Min  Mean   Rad  [day]    CO2   Rain  Trans     ET   <    <    >    >    >    >   Photo         Photo         Photo
                         days    øC    øC    øC MJ/m2     hr    ppm     mm     mm     mm  0øC  2øC 30øC 32øC 34øC  0mm  synth Growth  synth Growth  synth Growth
----------------------------------------------------------------------------------------------------------------------------------------------------------------
 Emergence-End Juvenile     9  32.0  23.7  27.9  18.2  24.00  396.2   27.6   48.4   48.4    0    0    9    4    0    7  0.000  0.000  0.002  0.005  0.000  0.000
 End Juvenil-Floral Init    7  32.2  24.1  28.1  15.7  24.00  396.2   89.5   31.8   31.8    0    0    7    2    0    5  0.000  0.000  0.001  0.002  0.000  0.000
 Floral Init-End Lf Grow   29  32.1  24.3  28.2  17.1  24.00  396.4  137.2  122.4  129.0    0    0   29   11    1   15  0.064  0.114  0.000  0.000  0.000  0.000
 End Lf Grth-Beg Grn Fil    8  32.0  23.5  27.8  18.9  24.00  396.5   12.8   36.8   37.9    0    0    8    3    0    2  0.027  0.069  0.000  0.000  0.000  0.000
 Grain Filling Phase       32  32.7  23.6  28.2  17.0  24.00  396.6  164.4  133.6  138.8    0    0   32   24    2   14  0.031  0.051  0.000  0.000  0.000  0.000


 Planting to Harvest       92  32.3  23.9  28.1  16.9  24.00  396.4  438.9  400.1  412.9    0    0   92   48    3   46  0.033  0.060  0.000  0.001  0.000  0.000
----------------------------------------------------------------------------------------------------------------------------------------------------------------


*Resource Productivity
 Growing season length:  92 days 

 Precipitation during growing season       438.9 mm[rain]
   Dry Matter Productivity                  2.89 kg[DM]/m3[rain]          =   28.9 kg[DM]/ha per mm[rain]
   Yield Productivity                       1.06 kg[grain yield]/m3[rain] =   10.6 kg[yield]/ha per mm[rain]

 Evapotranspiration during growing season  400.1 mm[ET]
   Dry Matter Productivity                  3.17 kg[DM]/m3[ET]            =   31.7 kg[DM]/ha per mm[ET]
   Yield Productivity                       1.16 kg[grain yield]/m3[ET]   =   11.6 kg[yield]/ha per mm[ET]

 Transpiration during growing season       241.5 mm[EP]
   Dry Matter Productivity                  5.25 kg[DM]/m3[EP]            =   52.5 kg[DM]/ha per mm[EP]
   Yield Productivity                       1.92 kg[grain yield]/m3[EP]   =   19.2 kg[yield]/ha per mm[EP]

 N applied during growing season            142. kg[N applied]/ha
   Dry Matter Productivity                  89.3 kg[DM]/kg[N applied]
   Yield Productivity                       32.6 kg[yield]/kg[N applied]

 N uptake during growing season              155 kg[N uptake]/ha
   Dry Matter Productivity                  81.8 kg[DM]/kg[N uptake]
   Yield Productivity                       29.9 kg[yield]/kg[N uptake]

--------------------------------------------------------------------------------------------------------------

                     Maize YIELD :     4632 kg/ha    [Dry weight] 

**************************************************************************************************************

*DSSAT Cropping System Model Ver. 4.6.1.000 -release      MAY 05, 2017; 11:09:13
                                                                                
*RUN   3        : P3                        MZCER046 3\000003    3              
 MODEL          : MZCER046 - Maize                                              
 EXPERIMENT     : 3\000003 BN Calibracion Cerete 2013                           
 DATA PATH      : C:\L\0\00000                                                  
 TREATMENT  3   : P3                        MZCER046                            
                                                                                
                                                                                
 CROP           : Maize            CULTIVAR : PIO 30F35HRB_    ECOTYPE :IB0001  
 STARTING DATE  : MAY 22 2013                                                   
 PLANTING DATE  : JUN  6 2013        PLANTS/m2 :  6.2     ROW SPACING :  80.cm  
 WEATHER        : CCCR   2013                                                   
 SOIL           : CCCERE2017     TEXTURE : CL    -   Suelo Cerete Calibracio    
 SOIL INITIAL C : DEPTH:100cm EXTR. H2O: 82.9mm  NO3: 37.9kg/ha  NH4: 67.2kg/ha 
 WATER BALANCE  : RAINFED                                                       
 IRRIGATION     : NOT IRRIGATED                                                 
 NITROGEN BAL.  : SOIL-N & N-UPTAKE SIMULATION; NO N-FIXATION                   
 N-FERTILIZER   :      142 kg/ha IN     5 APPLICATIONS                          
 RESIDUE/MANURE : INITIAL :     0 kg/ha ;       0 kg/ha IN     0 APPLICATIONS   
 ENVIRONM. OPT. : DAYL=    0.00  SRAD=    0.00  TMAX=    0.00  TMIN=    0.00    
                  RAIN=    0.00  CO2 =    0.00  DEW =    0.00  WIND=    0.00    
 SIMULATION OPT : WATER   :Y  NITROGEN:Y  N-FIX:N  PHOSPH :N  PESTS  :N         
                  PHOTO   :C  ET      :R  INFIL:S  HYDROL :R  SOM    :G         
                  CO2 396ppm  NSWIT   :1  EVAP :S  SOIL   :2  STEMP  :D         
 MANAGEMENT OPT : PLANTING:R  IRRIG   :N  FERT :D  RESIDUE:R  HARVEST:M         
                  WEATHER :M  TILLAGE :N                                        
                                                                                
*SUMMARY OF SOIL AND GENETIC INPUT PARAMETERS                                   
                                                                                
   SOIL LOWER UPPER   SAT  EXTR  INIT   ROOT   BULK     pH    NO3    NH4    ORG 
  DEPTH LIMIT LIMIT    SW    SW    SW   DIST   DENS                          C  
   cm   cm3/cm3    cm3/cm3    cm3/cm3         g/cm3         ugN/g  ugN/g     %  
------------------------------------------------------------------------------- 
  0-  5 0.313 0.407 0.502 0.094 0.424   1.00   1.53   7.00   3.78   4.42   1.32 
  5- 15 0.313 0.407 0.502 0.094 0.424   1.00   1.53   7.00   3.78   4.42   1.32 
 15- 26 0.313 0.407 0.502 0.094 0.424   1.00   1.53   7.00   3.78   4.42   1.32 
 26- 51 0.318 0.397 0.511 0.079 0.419   0.37   1.49   7.60   2.27   4.49   0.44 
 51- 75 0.318 0.397 0.511 0.079 0.418   0.37   1.49   7.60   1.98   4.50   0.44 
 75-100 0.318 0.397 0.511 0.079 0.418   0.37   1.49   7.60   1.98   4.50   0.44 
                                                                                
TOT-100  31.7  40.0  50.9   8.3  42.0  <--cm   -  kg/ha-->   37.9   67.2 101024 
SOIL ALBEDO    : 0.09      EVAPORATION LIMIT : 6.00         MIN. FACTOR  : 1.00 
RUNOFF CURVE # :73.00      DRAINAGE RATE     : 0.05         FERT. FACTOR : 1.00 
                                                                                
 Maize      CULTIVAR :000003-PIO 30F35HRB_      ECOTYPE :IB0001                 
 P1     : 180.00  P2     : 0.3000  P5     : 850.00                              
 G2     : 800.00  G3     :  6.000  PHINT  : 43.000                              


*SIMULATED CROP AND SOIL STATUS AT MAIN DEVELOPMENT STAGES

 RUN NO.     3     P3                      

        CROP GROWTH     BIOMASS         LEAF   CROP N     STRESS      STRESS                                           
   DATE  AGE STAGE        kg/ha    LAI   NUM  kg/ha  %   H2O  Nitr Phos1 Phos2  RSTG                                   
 ------  --- ----------   -----  -----  ----  ---  ---  ----  ----  ----  ----  ----                                   
 22 MAY    0 Start Sim        0   0.00   0.0    0  0.0  0.00  0.00  0.00  0.00     7
  6 JUN    0 Sowing           0   0.00   0.0    0  0.0  0.00  0.00  0.00  0.00     8
  7 JUN    1 Germinate        0   0.00   0.0    0  0.0  0.00  0.00  0.00  0.00     9
 11 JUN    5 Emergence       25   0.00   2.2    1  4.4  0.00  0.01  0.00  0.00     1
 20 JUN   14 End Juveni      98   0.21   7.1    3  3.3  0.03  0.00  0.00  0.00     2
 27 JUN   21 Floral Ini     361   0.64  10.5   13  3.6  0.19  0.00  0.00  0.00     3
 26 JUL   50 75% Silkin    6989   3.89  21.6  145  2.1  0.06  0.00  0.00  0.00     4
  4 AUG   59 Beg Gr Fil    9200   3.67  21.6  145  1.6  0.00  0.00  0.00  0.00     5
  5 SEP   91 End Gr Fil   13867   1.64  21.6  151  1.1  0.00  0.00  0.00  0.00     6
  7 SEP   93 Maturity     13867   1.64  21.6  151  1.1  0.00  0.00  0.00  0.00    10
  7 SEP   93 Harvest      13867   1.64  21.6  151  1.1  0.00  0.00  0.00  0.00    10


*MAIN GROWTH AND DEVELOPMENT VARIABLES

@     VARIABLE                                         SIMULATED     MEASURED
      --------                                         ---------     --------
      Anthesis day (dap)                                      50           49
      Physiological maturity day (dap)                        93           98
      Yield at harvest maturity (kg [dm]/ha)                4827          -99
      Number at maturity (no/m2)                            2818         2689
      Unit wt at maturity (g [dm]/unit)                   0.1713        0.271
      Number at maturity (no/unit)                         454.6          430
      Tops weight at maturity (kg [dm]/ha)                 13867          -99
      By-product produced (stalk) at maturity (kg[dm]/ha    9106          -99
      Leaf area index, maximum                              4.01          -99
      Harvest index at maturity                            0.348          -99
      Grain N at maturity (kg/ha)                             85          -99
      Tops N at maturity (kg/ha)                             151          -99
      Stem N at maturity (kg/ha)                              66          -99
      Grain N at maturity (%)                                1.8          -99
      Tops weight at anthesis (kg [dm]/ha)                  6731          -99
      Tops N at anthesis (kg/ha)                             145          -99
      Leaf number per stem at maturity                     21.63           19
      Emergence day (dap)                                      5          -99


*ENVIRONMENTAL AND STRESS FACTORS

 |-----Development Phase------|--------------------------------------Environment--------------------------------------|-----------------Stress-----------------|
                              |---------------Average--------------|-----Cumulative-----|--------Count of days--------|          (0=Min, 1=Max Stress)         |
                         Time  Temp  Temp  Temp Solar Photop                Evapo    Pot TMIN TMIN TMAX TMAX TMAX RAIN|----Water----|---Nitrogen--|-Phosphorus-|
                         Span   Max   Min  Mean   Rad  [day]    CO2   Rain  Trans     ET   <    <    >    >    >    >   Photo         Photo         Photo
                         days    øC    øC    øC MJ/m2     hr    ppm     mm     mm     mm  0øC  2øC 30øC 32øC 34øC  0mm  synth Growth  synth Growth  synth Growth
----------------------------------------------------------------------------------------------------------------------------------------------------------------
 Emergence-End Juvenile     9  32.0  24.5  28.2  17.0  24.00  396.3    9.3   39.1   45.3    0    0    9    2    0    5  0.000  0.034  0.002  0.005  0.000  0.000
 End Juvenil-Floral Init    7  31.9  24.3  28.1  14.7  24.00  396.4   15.9   23.3   29.6    0    0    7    2    0    3  0.075  0.193  0.001  0.003  0.000  0.000
 Floral Init-End Lf Grow   29  32.3  23.9  28.1  18.8  24.00  396.5  176.6  135.3  140.5    0    0   29   17    1   12  0.033  0.057  0.000  0.000  0.000  0.000
 End Lf Grth-Beg Grn Fil    9  33.0  23.2  28.1  17.1  24.00  396.6   25.4   38.4   38.6    0    0    9    7    1    7  0.000  0.000  0.000  0.000  0.000  0.000
 Grain Filling Phase       32  32.2  23.4  27.8  15.8  23.19  396.7  237.3  127.2  127.8    0    0   32   14    2   13  0.000  0.002  0.000  0.000  0.000  0.000


 Planting to Harvest       93  32.3  23.8  28.0  16.8  23.59  396.5  488.4  393.3  411.8    0    0   93   45    4   44  0.016  0.036  0.000  0.001  0.000  0.000
----------------------------------------------------------------------------------------------------------------------------------------------------------------


*Resource Productivity
 Growing season length:  93 days 

 Precipitation during growing season       488.4 mm[rain]
   Dry Matter Productivity                  2.84 kg[DM]/m3[rain]          =   28.4 kg[DM]/ha per mm[rain]
   Yield Productivity                       0.99 kg[grain yield]/m3[rain] =    9.9 kg[yield]/ha per mm[rain]

 Evapotranspiration during growing season  393.3 mm[ET]
   Dry Matter Productivity                  3.53 kg[DM]/m3[ET]            =   35.3 kg[DM]/ha per mm[ET]
   Yield Productivity                       1.23 kg[grain yield]/m3[ET]   =   12.3 kg[yield]/ha per mm[ET]

 Transpiration during growing season       260.8 mm[EP]
   Dry Matter Productivity                  5.32 kg[DM]/m3[EP]            =   53.2 kg[DM]/ha per mm[EP]
   Yield Productivity                       1.85 kg[grain yield]/m3[EP]   =   18.5 kg[yield]/ha per mm[EP]

 N applied during growing season            142. kg[N applied]/ha
   Dry Matter Productivity                  97.7 kg[DM]/kg[N applied]
   Yield Productivity                       34.0 kg[yield]/kg[N applied]

 N uptake during growing season              170 kg[N uptake]/ha
   Dry Matter Productivity                  81.6 kg[DM]/kg[N uptake]
   Yield Productivity                       28.4 kg[yield]/kg[N uptake]

--------------------------------------------------------------------------------------------------------------

                     Maize YIELD :     4827 kg/ha    [Dry weight] 

**************************************************************************************************************

*DSSAT Cropping System Model Ver. 4.6.1.000 -release      MAY 05, 2017; 11:09:13
                                                                                
*RUN   4        : P4                        MZCER046 3\000003    4              
 MODEL          : MZCER046 - Maize                                              
 EXPERIMENT     : 3\000003 BN Calibracion Cerete 2013                           
 DATA PATH      : C:\L\0\00000                                                  
 TREATMENT  4   : P4                        MZCER046                            
                                                                                
                                                                                
 CROP           : Maize            CULTIVAR : PIO 30F35HRB_    ECOTYPE :IB0001  
 STARTING DATE  : AUG 23 2013                                                   
 PLANTING DATE  : SEP  7 2013        PLANTS/m2 :  6.2     ROW SPACING :  80.cm  
 WEATHER        : CCCR   2013                                                   
 SOIL           : CCCERE2017     TEXTURE : CL    -   Suelo Cerete Calibracio    
 SOIL INITIAL C : DEPTH:100cm EXTR. H2O: 82.9mm  NO3: 37.9kg/ha  NH4: 67.2kg/ha 
 WATER BALANCE  : RAINFED                                                       
 IRRIGATION     : NOT IRRIGATED                                                 
 NITROGEN BAL.  : SOIL-N & N-UPTAKE SIMULATION; NO N-FIXATION                   
 N-FERTILIZER   :      142 kg/ha IN     5 APPLICATIONS                          
 RESIDUE/MANURE : INITIAL :     0 kg/ha ;       0 kg/ha IN     0 APPLICATIONS   
 ENVIRONM. OPT. : DAYL=    0.00  SRAD=    0.00  TMAX=    0.00  TMIN=    0.00    
                  RAIN=    0.00  CO2 =    0.00  DEW =    0.00  WIND=    0.00    
 SIMULATION OPT : WATER   :Y  NITROGEN:Y  N-FIX:N  PHOSPH :N  PESTS  :N         
                  PHOTO   :C  ET      :R  INFIL:S  HYDROL :R  SOM    :G         
                  CO2 397ppm  NSWIT   :1  EVAP :S  SOIL   :2  STEMP  :D         
 MANAGEMENT OPT : PLANTING:R  IRRIG   :N  FERT :D  RESIDUE:R  HARVEST:M         
                  WEATHER :M  TILLAGE :N                                        
                                                                                
*SUMMARY OF SOIL AND GENETIC INPUT PARAMETERS                                   
                                                                                
   SOIL LOWER UPPER   SAT  EXTR  INIT   ROOT   BULK     pH    NO3    NH4    ORG 
  DEPTH LIMIT LIMIT    SW    SW    SW   DIST   DENS                          C  
   cm   cm3/cm3    cm3/cm3    cm3/cm3         g/cm3         ugN/g  ugN/g     %  
------------------------------------------------------------------------------- 
  0-  5 0.313 0.407 0.502 0.094 0.424   1.00   1.53   7.00   3.78   4.42   1.32 
  5- 15 0.313 0.407 0.502 0.094 0.424   1.00   1.53   7.00   3.78   4.42   1.32 
 15- 26 0.313 0.407 0.502 0.094 0.424   1.00   1.53   7.00   3.78   4.42   1.32 
 26- 51 0.318 0.397 0.511 0.079 0.419   0.37   1.49   7.60   2.27   4.49   0.44 
 51- 75 0.318 0.397 0.511 0.079 0.418   0.37   1.49   7.60   1.98   4.50   0.44 
 75-100 0.318 0.397 0.511 0.079 0.418   0.37   1.49   7.60   1.98   4.50   0.44 
                                                                                
TOT-100  31.7  40.0  50.9   8.3  42.0  <--cm   -  kg/ha-->   37.9   67.2 101024 
SOIL ALBEDO    : 0.09      EVAPORATION LIMIT : 6.00         MIN. FACTOR  : 1.00 
RUNOFF CURVE # :73.00      DRAINAGE RATE     : 0.05         FERT. FACTOR : 1.00 
                                                                                
 Maize      CULTIVAR :000003-PIO 30F35HRB_      ECOTYPE :IB0001                 
 P1     : 180.00  P2     : 0.3000  P5     : 850.00                              
 G2     : 800.00  G3     :  6.000  PHINT  : 43.000                              


*SIMULATED CROP AND SOIL STATUS AT MAIN DEVELOPMENT STAGES

 RUN NO.     4     P4                      

        CROP GROWTH     BIOMASS         LEAF   CROP N     STRESS      STRESS                                           
   DATE  AGE STAGE        kg/ha    LAI   NUM  kg/ha  %   H2O  Nitr Phos1 Phos2  RSTG                                   
 ------  --- ----------   -----  -----  ----  ---  ---  ----  ----  ----  ----  ----                                   
 23 AUG    0 Start Sim        0   0.00   0.0    0  0.0  0.00  0.00  0.00  0.00     7
  7 SEP    0 Sowing           0   0.00   0.0    0  0.0  0.00  0.00  0.00  0.00     8
  8 SEP    1 Germinate        0   0.00   0.0    0  0.0  0.00  0.00  0.00  0.00     9
 12 SEP    5 Emergence       25   0.00   2.2    1  4.4  0.00  0.01  0.00  0.00     1
 21 SEP   14 End Juveni      98   0.21   7.1    3  3.1  0.02  0.00  0.00  0.00     2
 25 SEP   18 Floral Ini     209   0.41   9.0    8  3.7  0.12  0.00  0.00  0.00     3
 21 OCT   44 75% Silkin    4119   2.38  18.8   84  2.0  0.00  0.00  0.00  0.00     4
 29 OCT   52 Beg Gr Fil    5338   2.25  18.8   84  1.6  0.00  0.00  0.00  0.00     5
  1 DEC   85 End Gr Fil    8500   1.00  18.8   95  1.1  0.15  0.00  0.00  0.00     6
  3 DEC   87 Maturity      8500   1.00  18.8   95  1.1  0.00  0.00  0.00  0.00    10
  3 DEC   87 Harvest       8500   1.00  18.8   95  1.1  0.00  0.00  0.00  0.00    10


*MAIN GROWTH AND DEVELOPMENT VARIABLES

@     VARIABLE                                         SIMULATED     MEASURED
      --------                                         ---------     --------
      Anthesis day (dap)                                      44           51
      Physiological maturity day (dap)                        87          114
      Yield at harvest maturity (kg [dm]/ha)                3257         7908
      Number at maturity (no/m2)                            1856         2686
      Unit wt at maturity (g [dm]/unit)                   0.1755        0.296
      Number at maturity (no/unit)                         299.4          430
      Tops weight at maturity (kg [dm]/ha)                  8500        18007
      By-product produced (stalk) at maturity (kg[dm]/ha    5281         6801
      Leaf area index, maximum                              2.50         4.52
      Harvest index at maturity                            0.383         0.43
      Grain N at maturity (kg/ha)                             58          -99
      Tops N at maturity (kg/ha)                              95          -99
      Stem N at maturity (kg/ha)                              38          -99
      Grain N at maturity (%)                                1.8          -99
      Tops weight at anthesis (kg [dm]/ha)                  3974          -99
      Tops N at anthesis (kg/ha)                              83          -99
      Leaf number per stem at maturity                     18.80           17
      Emergence day (dap)                                      5          -99


*ENVIRONMENTAL AND STRESS FACTORS

 |-----Development Phase------|--------------------------------------Environment--------------------------------------|-----------------Stress-----------------|
                              |---------------Average--------------|-----Cumulative-----|--------Count of days--------|          (0=Min, 1=Max Stress)         |
                         Time  Temp  Temp  Temp Solar Photop                Evapo    Pot TMIN TMIN TMAX TMAX TMAX RAIN|----Water----|---Nitrogen--|-Phosphorus-|
                         Span   Max   Min  Mean   Rad  [day]    CO2   Rain  Trans     ET   <    <    >    >    >    >   Photo         Photo         Photo
                         days    øC    øC    øC MJ/m2     hr    ppm     mm     mm     mm  0øC  2øC 30øC 32øC 34øC  0mm  synth Growth  synth Growth  synth Growth
----------------------------------------------------------------------------------------------------------------------------------------------------------------
 Emergence-End Juvenile     9  32.3  24.0  28.2  14.7  13.64  396.9   29.8   37.7   39.3    0    0    9    4    1    4  0.000  0.017  0.003  0.007  0.000  0.000
 End Juvenil-Floral Init    4  32.3  24.0  28.1  14.8  11.40  397.0    3.6   16.2   17.2    0    0    4    2    0    1  0.020  0.113  0.001  0.004  0.000  0.000
 Floral Init-End Lf Grow   26  32.0  23.9  28.0  13.7   5.04  397.0  145.1   93.7   94.0    0    0   26   11    0   10  0.000  0.006  0.000  0.000  0.000  0.000
 End Lf Grth-Beg Grn Fil    8  32.0  24.2  28.1  12.5   0.00  397.1   14.9   25.4   25.5    0    0    8    3    1    3  0.000  0.000  0.000  0.000  0.000  0.000
 Grain Filling Phase       33  31.6  23.7  27.7  15.6   0.00  397.2  139.5  125.7  132.1    0    0   32    8    0   12  0.052  0.146  0.000  0.000  0.000  0.000


 Planting to Harvest       87  31.9  23.9  27.9  14.7   4.37  397.1  352.7  332.0  341.4    0    0   85   31    2   33  0.021  0.064  0.000  0.001  0.000  0.000
----------------------------------------------------------------------------------------------------------------------------------------------------------------


*Resource Productivity
 Growing season length:  87 days 

 Precipitation during growing season       352.7 mm[rain]
   Dry Matter Productivity                  2.41 kg[DM]/m3[rain]          =   24.1 kg[DM]/ha per mm[rain]
   Yield Productivity                       0.92 kg[grain yield]/m3[rain] =    9.2 kg[yield]/ha per mm[rain]

 Evapotranspiration during growing season  332.0 mm[ET]
   Dry Matter Productivity                  2.56 kg[DM]/m3[ET]            =   25.6 kg[DM]/ha per mm[ET]
   Yield Productivity                       0.98 kg[grain yield]/m3[ET]   =    9.8 kg[yield]/ha per mm[ET]

 Transpiration during growing season       175.0 mm[EP]
   Dry Matter Productivity                  4.86 kg[DM]/m3[EP]            =   48.6 kg[DM]/ha per mm[EP]
   Yield Productivity                       1.86 kg[grain yield]/m3[EP]   =   18.6 kg[yield]/ha per mm[EP]

 N applied during growing season            142. kg[N applied]/ha
   Dry Matter Productivity                  59.9 kg[DM]/kg[N applied]
   Yield Productivity                       22.9 kg[yield]/kg[N applied]

 N uptake during growing season              108 kg[N uptake]/ha
   Dry Matter Productivity                  78.7 kg[DM]/kg[N uptake]
   Yield Productivity                       30.2 kg[yield]/kg[N uptake]

--------------------------------------------------------------------------------------------------------------

                     Maize YIELD :     3257 kg/ha    [Dry weight] 

**************************************************************************************************************

*DSSAT Cropping System Model Ver. 4.6.1.000 -release      MAY 05, 2017; 11:09:13
                                                                                
*RUN   5        : P5                        MZCER046 3\000003    5              
 MODEL          : MZCER046 - Maize                                              
 EXPERIMENT     : 3\000003 BN Calibracion Cerete 2013                           
 DATA PATH      : C:\L\0\00000                                                  
 TREATMENT  5   : P5                        MZCER046                            
                                                                                
                                                                                
 CROP           : Maize            CULTIVAR : PIO 30F35HRB_    ECOTYPE :IB0001  
 STARTING DATE  : SEP 11 2013                                                   
 PLANTING DATE  : SEP 26 2013        PLANTS/m2 :  6.2     ROW SPACING :  80.cm  
 WEATHER        : CCCR   2013                                                   
 SOIL           : CCCERE2017     TEXTURE : CL    -   Suelo Cerete Calibracio    
 SOIL INITIAL C : DEPTH:100cm EXTR. H2O: 82.9mm  NO3: 37.9kg/ha  NH4: 67.2kg/ha 
 WATER BALANCE  : RAINFED                                                       
 IRRIGATION     : NOT IRRIGATED                                                 
 NITROGEN BAL.  : SOIL-N & N-UPTAKE SIMULATION; NO N-FIXATION                   
 N-FERTILIZER   :      142 kg/ha IN     5 APPLICATIONS                          
 RESIDUE/MANURE : INITIAL :     0 kg/ha ;       0 kg/ha IN     0 APPLICATIONS   
 ENVIRONM. OPT. : DAYL=    0.00  SRAD=    0.00  TMAX=    0.00  TMIN=    0.00    
                  RAIN=    0.00  CO2 =    0.00  DEW =    0.00  WIND=    0.00    
 SIMULATION OPT : WATER   :Y  NITROGEN:Y  N-FIX:N  PHOSPH :N  PESTS  :N         
                  PHOTO   :C  ET      :R  INFIL:S  HYDROL :R  SOM    :G         
                  CO2 397ppm  NSWIT   :1  EVAP :S  SOIL   :2  STEMP  :D         
 MANAGEMENT OPT : PLANTING:R  IRRIG   :N  FERT :D  RESIDUE:R  HARVEST:M         
                  WEATHER :M  TILLAGE :N                                        
                                                                                
*SUMMARY OF SOIL AND GENETIC INPUT PARAMETERS                                   
                                                                                
   SOIL LOWER UPPER   SAT  EXTR  INIT   ROOT   BULK     pH    NO3    NH4    ORG 
  DEPTH LIMIT LIMIT    SW    SW    SW   DIST   DENS                          C  
   cm   cm3/cm3    cm3/cm3    cm3/cm3         g/cm3         ugN/g  ugN/g     %  
------------------------------------------------------------------------------- 
  0-  5 0.313 0.407 0.502 0.094 0.424   1.00   1.53   7.00   3.78   4.42   1.32 
  5- 15 0.313 0.407 0.502 0.094 0.424   1.00   1.53   7.00   3.78   4.42   1.32 
 15- 26 0.313 0.407 0.502 0.094 0.424   1.00   1.53   7.00   3.78   4.42   1.32 
 26- 51 0.318 0.397 0.511 0.079 0.419   0.37   1.49   7.60   2.27   4.49   0.44 
 51- 75 0.318 0.397 0.511 0.079 0.418   0.37   1.49   7.60   1.98   4.50   0.44 
 75-100 0.318 0.397 0.511 0.079 0.418   0.37   1.49   7.60   1.98   4.50   0.44 
                                                                                
TOT-100  31.7  40.0  50.9   8.3  42.0  <--cm   -  kg/ha-->   37.9   67.2 101024 
SOIL ALBEDO    : 0.09      EVAPORATION LIMIT : 6.00         MIN. FACTOR  : 1.00 
RUNOFF CURVE # :73.00      DRAINAGE RATE     : 0.05         FERT. FACTOR : 1.00 
                                                                                
 Maize      CULTIVAR :000003-PIO 30F35HRB_      ECOTYPE :IB0001                 
 P1     : 180.00  P2     : 0.3000  P5     : 850.00                              
 G2     : 800.00  G3     :  6.000  PHINT  : 43.000                              


*SIMULATED CROP AND SOIL STATUS AT MAIN DEVELOPMENT STAGES

 RUN NO.     5     P5                      

        CROP GROWTH     BIOMASS         LEAF   CROP N     STRESS      STRESS                                           
   DATE  AGE STAGE        kg/ha    LAI   NUM  kg/ha  %   H2O  Nitr Phos1 Phos2  RSTG                                   
 ------  --- ----------   -----  -----  ----  ---  ---  ----  ----  ----  ----  ----                                   
 11 SEP    0 Start Sim        0   0.00   0.0    0  0.0  0.00  0.00  0.00  0.00     7
 26 SEP    0 Sowing           0   0.00   0.0    0  0.0  0.00  0.00  0.00  0.00     8
 27 SEP    1 Germinate        0   0.00   0.0    0  0.0  0.00  0.00  0.00  0.00     9
  1 OCT    5 Emergence       25   0.00   2.2    1  4.4  0.00  0.01  0.00  0.00     1
 10 OCT   14 End Juveni     105   0.23   7.1    3  3.0  0.00  0.00  0.00  0.00     2
 14 OCT   18 Floral Ini     208   0.41   9.0    8  3.7  0.00  0.00  0.00  0.00     3
  9 NOV   44 75% Silkin    3480   1.93  18.7   72  2.1  0.19  0.00  0.00  0.00     4
 18 NOV   53 Beg Gr Fil    4994   1.91  18.7   72  1.4  0.06  0.00  0.00  0.00     5
 20 DEC   85 End Gr Fil    7958   0.89  18.7   87  1.1  0.33  0.00  0.00  0.00     6
 22 DEC   87 Maturity      7958   0.89  18.7   87  1.1  0.73  0.00  0.00  0.00    10
 22 DEC   87 Harvest       7958   0.89  18.7   87  1.1  0.00  0.00  0.00  0.00    10


*MAIN GROWTH AND DEVELOPMENT VARIABLES

@     VARIABLE                                         SIMULATED     MEASURED
      --------                                         ---------     --------
      Anthesis day (dap)                                      44           51
      Physiological maturity day (dap)                        87          109
      Yield at harvest maturity (kg [dm]/ha)                3057         8652
      Number at maturity (no/m2)                            2037         3157
      Unit wt at maturity (g [dm]/unit)                   0.1501        0.274
      Number at maturity (no/unit)                         328.5          505
      Tops weight at maturity (kg [dm]/ha)                  7958        21338
      By-product produced (stalk) at maturity (kg[dm]/ha    4937         7441
      Leaf area index, maximum                              2.00          -99
      Harvest index at maturity                            0.384         0.40
      Grain N at maturity (kg/ha)                             55          -99
      Tops N at maturity (kg/ha)                              87          -99
      Stem N at maturity (kg/ha)                              32          -99
      Grain N at maturity (%)                                1.8          -99
      Tops weight at anthesis (kg [dm]/ha)                  3253          -99
      Tops N at anthesis (kg/ha)                              70          -99
      Leaf number per stem at maturity                     18.69           18
      Emergence day (dap)                                      5          -99


*ENVIRONMENTAL AND STRESS FACTORS

 |-----Development Phase------|--------------------------------------Environment--------------------------------------|-----------------Stress-----------------|
                              |---------------Average--------------|-----Cumulative-----|--------Count of days--------|          (0=Min, 1=Max Stress)         |
                         Time  Temp  Temp  Temp Solar Photop                Evapo    Pot TMIN TMIN TMAX TMAX TMAX RAIN|----Water----|---Nitrogen--|-Phosphorus-|
                         Span   Max   Min  Mean   Rad  [day]    CO2   Rain  Trans     ET   <    <    >    >    >    >   Photo         Photo         Photo
                         days    øC    øC    øC MJ/m2     hr    ppm     mm     mm     mm  0øC  2øC 30øC 32øC 34øC  0mm  synth Growth  synth Growth  synth Growth
----------------------------------------------------------------------------------------------------------------------------------------------------------------
 Emergence-End Juvenile     9  32.1  24.2  28.2  14.2   6.73  396.9   15.1   36.5   37.7    0    0    9    4    0    3  0.000  0.000  0.002  0.006  0.000  0.000
 End Juvenil-Floral Init    4  32.1  23.3  27.7  15.4   3.14  397.0   41.0   17.7   17.8    0    0    4    1    0    2  0.000  0.000  0.001  0.004  0.000  0.000
 Floral Init-End Lf Grow   26  31.9  23.7  27.8  14.2   0.00  397.1   76.4   86.5   97.8    0    0   26   11    1   12  0.128  0.185  0.000  0.000  0.000  0.000
 End Lf Grth-Beg Grn Fil    9  31.6  24.6  28.1  15.3   0.00  397.2   11.9   35.3   35.5    0    0    8    2    0    1  0.000  0.000  0.000  0.000  0.000  0.000
 Grain Filling Phase       32  32.0  23.8  27.9  15.6   0.00  397.3   90.9  105.0  130.5    0    0   32   10    0    7  0.215  0.323  0.000  0.000  0.000  0.000


 Planting to Harvest       87  31.9  23.8  27.9  14.9   1.39  397.2  305.1  302.9  348.3    0    0   86   31    1   27  0.131  0.191  0.000  0.001  0.000  0.000
----------------------------------------------------------------------------------------------------------------------------------------------------------------


*Resource Productivity
 Growing season length:  87 days 

 Precipitation during growing season       305.1 mm[rain]
   Dry Matter Productivity                  2.61 kg[DM]/m3[rain]          =   26.1 kg[DM]/ha per mm[rain]
   Yield Productivity                       1.00 kg[grain yield]/m3[rain] =   10.0 kg[yield]/ha per mm[rain]

 Evapotranspiration during growing season  302.9 mm[ET]
   Dry Matter Productivity                  2.63 kg[DM]/m3[ET]            =   26.3 kg[DM]/ha per mm[ET]
   Yield Productivity                       1.01 kg[grain yield]/m3[ET]   =   10.1 kg[yield]/ha per mm[ET]

 Transpiration during growing season       144.4 mm[EP]
   Dry Matter Productivity                  5.51 kg[DM]/m3[EP]            =   55.1 kg[DM]/ha per mm[EP]
   Yield Productivity                       2.12 kg[grain yield]/m3[EP]   =   21.2 kg[yield]/ha per mm[EP]

 N applied during growing season            142. kg[N applied]/ha
   Dry Matter Productivity                  56.0 kg[DM]/kg[N applied]
   Yield Productivity                       21.5 kg[yield]/kg[N applied]

 N uptake during growing season               95 kg[N uptake]/ha
   Dry Matter Productivity                  83.8 kg[DM]/kg[N uptake]
   Yield Productivity                       32.2 kg[yield]/kg[N uptake]

--------------------------------------------------------------------------------------------------------------

                     Maize YIELD :     3057 kg/ha    [Dry weight] 

**************************************************************************************************************

*DSSAT Cropping System Model Ver. 4.6.1.000 -release      MAY 05, 2017; 11:09:13
                                                                                
*RUN   6        : P6                        MZCER046 3\000003    6              
 MODEL          : MZCER046 - Maize                                              
 EXPERIMENT     : 3\000003 BN Calibracion Cerete 2013                           
 DATA PATH      : C:\L\0\00000                                                  
 TREATMENT  6   : P6                        MZCER046                            
                                                                                
                                                                                
 CROP           : Maize            CULTIVAR : PIO 30F35HRB_    ECOTYPE :IB0001  
 STARTING DATE  : SEP 20 2013                                                   
 PLANTING DATE  : OCT  5 2013        PLANTS/m2 :  6.2     ROW SPACING :  80.cm  
 WEATHER        : CCCR   2013                                                   
 SOIL           : CCCERE2017     TEXTURE : CL    -   Suelo Cerete Calibracio    
 SOIL INITIAL C : DEPTH:100cm EXTR. H2O: 82.9mm  NO3: 37.9kg/ha  NH4: 67.2kg/ha 
 WATER BALANCE  : RAINFED                                                       
 IRRIGATION     : NOT IRRIGATED                                                 
 NITROGEN BAL.  : SOIL-N & N-UPTAKE SIMULATION; NO N-FIXATION                   
 N-FERTILIZER   :      142 kg/ha IN     5 APPLICATIONS                          
 RESIDUE/MANURE : INITIAL :     0 kg/ha ;       0 kg/ha IN     0 APPLICATIONS   
 ENVIRONM. OPT. : DAYL=    0.00  SRAD=    0.00  TMAX=    0.00  TMIN=    0.00    
                  RAIN=    0.00  CO2 =    0.00  DEW =    0.00  WIND=    0.00    
 SIMULATION OPT : WATER   :Y  NITROGEN:Y  N-FIX:N  PHOSPH :N  PESTS  :N         
                  PHOTO   :C  ET      :R  INFIL:S  HYDROL :R  SOM    :G         
                  CO2 397ppm  NSWIT   :1  EVAP :S  SOIL   :2  STEMP  :D         
 MANAGEMENT OPT : PLANTING:R  IRRIG   :N  FERT :D  RESIDUE:R  HARVEST:M         
                  WEATHER :M  TILLAGE :N                                        
                                                                                
*SUMMARY OF SOIL AND GENETIC INPUT PARAMETERS                                   
                                                                                
   SOIL LOWER UPPER   SAT  EXTR  INIT   ROOT   BULK     pH    NO3    NH4    ORG 
  DEPTH LIMIT LIMIT    SW    SW    SW   DIST   DENS                          C  
   cm   cm3/cm3    cm3/cm3    cm3/cm3         g/cm3         ugN/g  ugN/g     %  
------------------------------------------------------------------------------- 
  0-  5 0.313 0.407 0.502 0.094 0.424   1.00   1.53   7.00   3.78   4.42   1.32 
  5- 15 0.313 0.407 0.502 0.094 0.424   1.00   1.53   7.00   3.78   4.42   1.32 
 15- 26 0.313 0.407 0.502 0.094 0.424   1.00   1.53   7.00   3.78   4.42   1.32 
 26- 51 0.318 0.397 0.511 0.079 0.419   0.37   1.49   7.60   2.27   4.49   0.44 
 51- 75 0.318 0.397 0.511 0.079 0.418   0.37   1.49   7.60   1.98   4.50   0.44 
 75-100 0.318 0.397 0.511 0.079 0.418   0.37   1.49   7.60   1.98   4.50   0.44 
                                                                                
TOT-100  31.7  40.0  50.9   8.3  42.0  <--cm   -  kg/ha-->   37.9   67.2 101024 
SOIL ALBEDO    : 0.09      EVAPORATION LIMIT : 6.00         MIN. FACTOR  : 1.00 
RUNOFF CURVE # :73.00      DRAINAGE RATE     : 0.05         FERT. FACTOR : 1.00 
                                                                                
 Maize      CULTIVAR :000003-PIO 30F35HRB_      ECOTYPE :IB0001                 
 P1     : 180.00  P2     : 0.3000  P5     : 850.00                              
 G2     : 800.00  G3     :  6.000  PHINT  : 43.000                              


*SIMULATED CROP AND SOIL STATUS AT MAIN DEVELOPMENT STAGES

 RUN NO.     6     P6                      

        CROP GROWTH     BIOMASS         LEAF   CROP N     STRESS      STRESS                                           
   DATE  AGE STAGE        kg/ha    LAI   NUM  kg/ha  %   H2O  Nitr Phos1 Phos2  RSTG                                   
 ------  --- ----------   -----  -----  ----  ---  ---  ----  ----  ----  ----  ----                                   
 20 SEP    0 Start Sim        0   0.00   0.0    0  0.0  0.00  0.00  0.00  0.00     7
  5 OCT    0 Sowing           0   0.00   0.0    0  0.0  0.00  0.00  0.00  0.00     8
  6 OCT    1 Germinate        0   0.00   0.0    0  0.0  0.00  0.00  0.00  0.00     9
 10 OCT    5 Emergence       25   0.00   2.2    1  4.4  0.00  0.01  0.00  0.00     1
 19 OCT   14 End Juveni      89   0.19   7.0    3  3.2  0.00  0.00  0.00  0.00     2
 23 OCT   18 Floral Ini     189   0.37   8.9    7  3.7  0.01  0.00  0.00  0.00     3
 18 NOV   44 75% Silkin    3375   1.84  18.6   70  2.1  0.19  0.00  0.00  0.00     4
 27 NOV   53 Beg Gr Fil    3801   1.44  18.6   70  1.9  0.66  0.00  0.00  0.00     5
 29 DEC   85 End Gr Fil    5224   0.83  18.6   70  1.3  0.37  0.00  0.00  0.00     6
 31 DEC   87 Maturity      5224   0.83  18.6   70  1.3  0.83  0.00  0.00  0.00    10
 31 DEC   87 Harvest       5224   0.83  18.6   70  1.3  0.00  0.00  0.00  0.00    10


*MAIN GROWTH AND DEVELOPMENT VARIABLES

@     VARIABLE                                         SIMULATED     MEASURED
      --------                                         ---------     --------
      Anthesis day (dap)                                      44           52
      Physiological maturity day (dap)                        87          107
      Yield at harvest maturity (kg [dm]/ha)                1484         7381
      Number at maturity (no/m2)                             999         3033
      Unit wt at maturity (g [dm]/unit)                   0.1484        0.326
      Number at maturity (no/unit)                         161.2          485
      Tops weight at maturity (kg [dm]/ha)                  5224        17051
      By-product produced (stalk) at maturity (kg[dm]/ha    3773         6348
      Leaf area index, maximum                              1.87          -99
      Harvest index at maturity                            0.284         0.43
      Grain N at maturity (kg/ha)                             27          -99
      Tops N at maturity (kg/ha)                              70          -99
      Stem N at maturity (kg/ha)                              44          -99
      Grain N at maturity (%)                                1.8          -99
      Tops weight at anthesis (kg [dm]/ha)                  3204          -99
      Tops N at anthesis (kg/ha)                              68          -99
      Leaf number per stem at maturity                     18.60           19
      Emergence day (dap)                                      5          -99


*ENVIRONMENTAL AND STRESS FACTORS

 |-----Development Phase------|--------------------------------------Environment--------------------------------------|-----------------Stress-----------------|
                              |---------------Average--------------|-----Cumulative-----|--------Count of days--------|          (0=Min, 1=Max Stress)         |
                         Time  Temp  Temp  Temp Solar Photop                Evapo    Pot TMIN TMIN TMAX TMAX TMAX RAIN|----Water----|---Nitrogen--|-Phosphorus-|
                         Span   Max   Min  Mean   Rad  [day]    CO2   Rain  Trans     ET   <    <    >    >    >    >   Photo         Photo         Photo
                         days    øC    øC    øC MJ/m2     hr    ppm     mm     mm     mm  0øC  2øC 30øC 32øC 34øC  0mm  synth Growth  synth Growth  synth Growth
----------------------------------------------------------------------------------------------------------------------------------------------------------------
 Emergence-End Juvenile     9  32.2  23.6  27.9  14.6   1.40  397.0   47.6   38.9   38.9    0    0    9    5    0    3  0.000  0.000  0.002  0.006  0.000  0.000
 End Juvenil-Floral Init    4  31.4  24.1  27.8  10.4   0.00  397.1   24.9   12.0   12.0    0    0    4    1    0    2  0.000  0.000  0.001  0.003  0.000  0.000
 Floral Init-End Lf Grow   26  31.8  23.9  27.8  15.2   0.00  397.1   56.8   96.2  105.9    0    0   25    8    1   10  0.097  0.170  0.000  0.000  0.000  0.000
 End Lf Grth-Beg Grn Fil    9  31.7  23.7  27.7  15.2   0.00  397.3   53.0   21.0   35.3    0    0    9    2    0    3  0.576  0.718  0.000  0.000  0.000  0.000
 Grain Filling Phase       32  32.1  23.3  27.7  16.8   0.00  397.4   37.9   98.3  141.6    0    0   32   13    0    4  0.253  0.341  0.000  0.000  0.000  0.000


 Planting to Harvest       87  32.0  23.7  27.8  15.5   0.48  397.2  225.1  289.1  364.8    0    0   86   33    1   24  0.199  0.270  0.000  0.001  0.000  0.000
----------------------------------------------------------------------------------------------------------------------------------------------------------------


*Resource Productivity
 Growing season length:  87 days 

 Precipitation during growing season       225.1 mm[rain]
   Dry Matter Productivity                  2.32 kg[DM]/m3[rain]          =   23.2 kg[DM]/ha per mm[rain]
   Yield Productivity                       0.66 kg[grain yield]/m3[rain] =    6.6 kg[yield]/ha per mm[rain]

 Evapotranspiration during growing season  289.1 mm[ET]
   Dry Matter Productivity                  1.81 kg[DM]/m3[ET]            =   18.1 kg[DM]/ha per mm[ET]
   Yield Productivity                       0.51 kg[grain yield]/m3[ET]   =    5.1 kg[yield]/ha per mm[ET]

 Transpiration during growing season       125.3 mm[EP]
   Dry Matter Productivity                  4.17 kg[DM]/m3[EP]            =   41.7 kg[DM]/ha per mm[EP]
   Yield Productivity                       1.18 kg[grain yield]/m3[EP]   =   11.8 kg[yield]/ha per mm[EP]

 N applied during growing season            142. kg[N applied]/ha
   Dry Matter Productivity                  36.8 kg[DM]/kg[N applied]
   Yield Productivity                       10.5 kg[yield]/kg[N applied]

 N uptake during growing season               73 kg[N uptake]/ha
   Dry Matter Productivity                  71.6 kg[DM]/kg[N uptake]
   Yield Productivity                       20.3 kg[yield]/kg[N uptake]

--------------------------------------------------------------------------------------------------------------

                     Maize YIELD :     1484 kg/ha    [Dry weight] 

**************************************************************************************************************

*DSSAT Cropping System Model Ver. 4.6.1.000 -release      MAY 05, 2017; 11:09:13
                                                                                
*RUN   7        : P7                        MZCER046 3\000003    7              
 MODEL          : MZCER046 - Maize                                              
 EXPERIMENT     : 3\000003 BN Calibracion Cerete 2013                           
 DATA PATH      : C:\L\0\00000                                                  
 TREATMENT  7   : P7                        MZCER046                            
                                                                                
                                                                                
 CROP           : Maize            CULTIVAR : PIO 30F35HRB_    ECOTYPE :IB0001  
 STARTING DATE  : APR 23 2014                                                   
 PLANTING DATE  : MAY  8 2014        PLANTS/m2 :  6.2     ROW SPACING :  80.cm  
 WEATHER        : CCCR   2014                                                   
 SOIL           : CCCERE2017     TEXTURE : CL    -   Suelo Cerete Calibracio    
 SOIL INITIAL C : DEPTH:100cm EXTR. H2O: 82.9mm  NO3: 37.9kg/ha  NH4: 67.2kg/ha 
 WATER BALANCE  : RAINFED                                                       
 IRRIGATION     : NOT IRRIGATED                                                 
 NITROGEN BAL.  : SOIL-N & N-UPTAKE SIMULATION; NO N-FIXATION                   
 N-FERTILIZER   :      142 kg/ha IN     5 APPLICATIONS                          
 RESIDUE/MANURE : INITIAL :     0 kg/ha ;       0 kg/ha IN     0 APPLICATIONS   
 ENVIRONM. OPT. : DAYL=    0.00  SRAD=    0.00  TMAX=    0.00  TMIN=    0.00    
                  RAIN=    0.00  CO2 =    0.00  DEW =    0.00  WIND=    0.00    
 SIMULATION OPT : WATER   :Y  NITROGEN:Y  N-FIX:N  PHOSPH :N  PESTS  :N         
                  PHOTO   :C  ET      :R  INFIL:S  HYDROL :R  SOM    :G         
                  CO2 398ppm  NSWIT   :1  EVAP :S  SOIL   :2  STEMP  :D         
 MANAGEMENT OPT : PLANTING:R  IRRIG   :N  FERT :D  RESIDUE:R  HARVEST:M         
                  WEATHER :M  TILLAGE :N                                        
                                                                                
*SUMMARY OF SOIL AND GENETIC INPUT PARAMETERS                                   
                                                                                
   SOIL LOWER UPPER   SAT  EXTR  INIT   ROOT   BULK     pH    NO3    NH4    ORG 
  DEPTH LIMIT LIMIT    SW    SW    SW   DIST   DENS                          C  
   cm   cm3/cm3    cm3/cm3    cm3/cm3         g/cm3         ugN/g  ugN/g     %  
------------------------------------------------------------------------------- 
  0-  5 0.313 0.407 0.502 0.094 0.364   1.00   1.53   7.00   3.78   4.42   1.32 
  5- 15 0.313 0.407 0.502 0.094 0.364   1.00   1.53   7.00   3.78   4.42   1.32 
 15- 26 0.313 0.407 0.502 0.094 0.364   1.00   1.53   7.00   3.78   4.42   1.32 
 26- 51 0.318 0.397 0.511 0.079 0.372   0.37   1.49   7.60   2.27   4.49   0.44 
 51- 75 0.318 0.397 0.511 0.079 0.373   0.37   1.49   7.60   1.98   4.50   0.44 
 75-100 0.318 0.397 0.511 0.079 0.373   0.37   1.49   7.60   1.98   4.50   0.44 
                                                                                
TOT-100  31.7  40.0  50.9   8.3  37.0  <--cm   -  kg/ha-->   37.9   67.2 101024 
SOIL ALBEDO    : 0.09      EVAPORATION LIMIT : 6.00         MIN. FACTOR  : 1.00 
RUNOFF CURVE # :73.00      DRAINAGE RATE     : 0.05         FERT. FACTOR : 1.00 
                                                                                
 Maize      CULTIVAR :000003-PIO 30F35HRB_      ECOTYPE :IB0001                 
 P1     : 180.00  P2     : 0.3000  P5     : 850.00                              
 G2     : 800.00  G3     :  6.000  PHINT  : 43.000                              


*SIMULATED CROP AND SOIL STATUS AT MAIN DEVELOPMENT STAGES

 RUN NO.     7     P7                      

        CROP GROWTH     BIOMASS         LEAF   CROP N     STRESS      STRESS                                           
   DATE  AGE STAGE        kg/ha    LAI   NUM  kg/ha  %   H2O  Nitr Phos1 Phos2  RSTG                                   
 ------  --- ----------   -----  -----  ----  ---  ---  ----  ----  ----  ----  ----                                   
 23 APR    0 Start Sim        0   0.00   0.0    0  0.0  0.00  0.00  0.00  0.00     7
  8 MAY    0 Sowing           0   0.00   0.0    0  0.0  0.00  0.00  0.00  0.00     8
  9 MAY    1 Germinate        0   0.00   0.0    0  0.0  0.00  0.00  0.00  0.00     9
 13 MAY    5 Emergence       25   0.00   2.2    1  4.4  0.00  0.01  0.00  0.00     1
 22 MAY   14 End Juveni      91   0.19   7.2    3  3.6  0.10  0.00  0.00  0.00     2
 29 MAY   21 Floral Ini     212   0.37  10.5    8  3.7  0.60  0.00  0.00  0.00     3
 27 JUN   50 75% Silkin    1836   0.87  21.7   38  2.1  0.42  0.00  0.00  0.00     4
  6 JUL   59 Beg Gr Fil    2823   0.87  21.7   39  1.4  0.12  0.00  0.00  0.00     5
  7 AUG   91 End Gr Fil    4673   0.47  21.7   53  1.1  0.36  0.00  0.00  0.00     6
  9 AUG   93 Maturity      4673   0.47  21.7   53  1.1  0.00  0.00  0.00  0.00    10
  9 AUG   93 Harvest       4673   0.47  21.7   53  1.1  0.00  0.00  0.00  0.00    10


*MAIN GROWTH AND DEVELOPMENT VARIABLES

@     VARIABLE                                         SIMULATED     MEASURED
      --------                                         ---------     --------
      Anthesis day (dap)                                      50           46
      Physiological maturity day (dap)                        93          104
      Yield at harvest maturity (kg [dm]/ha)                1944         9926
      Number at maturity (no/m2)                            1366         3103
      Unit wt at maturity (g [dm]/unit)                   0.1424         0.27
      Number at maturity (no/unit)                         220.3          497
      Tops weight at maturity (kg [dm]/ha)                  4673        23251
      By-product produced (stalk) at maturity (kg[dm]/ha    2749         8536
      Leaf area index, maximum                              0.87         4.61
      Harvest index at maturity                            0.416         0.42
      Grain N at maturity (kg/ha)                             35          -99
      Tops N at maturity (kg/ha)                              53          -99
      Stem N at maturity (kg/ha)                              18          -99
      Grain N at maturity (%)                                1.8          -99
      Tops weight at anthesis (kg [dm]/ha)                  1721          -99
      Tops N at anthesis (kg/ha)                              37          -99
      Leaf number per stem at maturity                     21.71           16
      Emergence day (dap)                                      5          -99


*ENVIRONMENTAL AND STRESS FACTORS

 |-----Development Phase------|--------------------------------------Environment--------------------------------------|-----------------Stress-----------------|
                              |---------------Average--------------|-----Cumulative-----|--------Count of days--------|          (0=Min, 1=Max Stress)         |
                         Time  Temp  Temp  Temp Solar Photop                Evapo    Pot TMIN TMIN TMAX TMAX TMAX RAIN|----Water----|---Nitrogen--|-Phosphorus-|
                         Span   Max   Min  Mean   Rad  [day]    CO2   Rain  Trans     ET   <    <    >    >    >    >   Photo         Photo         Photo
                         days    øC    øC    øC MJ/m2     hr    ppm     mm     mm     mm  0øC  2øC 30øC 32øC 34øC  0mm  synth Growth  synth Growth  synth Growth
----------------------------------------------------------------------------------------------------------------------------------------------------------------
 Emergence-End Juvenile     9  32.4  24.6  28.5  16.6  24.00  398.3    0.0   34.0   44.5    0    0    9    6    0    0  0.000  0.039  0.002  0.005  0.000  0.000
 End Juvenil-Floral Init    7  31.9  24.3  28.1  17.9  24.00  398.4    1.0   12.4   35.7    0    0    6    4    0    1  0.412  0.609  0.001  0.003  0.000  0.000
 Floral Init-End Lf Grow   29  32.0  24.1  28.0  14.5  24.00  398.4  133.0   83.2  117.2    0    0   28   16    0   11  0.373  0.434  0.000  0.000  0.000  0.000
 End Lf Grth-Beg Grn Fil    9  32.6  23.8  28.2  16.0  24.00  398.5   11.1   37.9   39.4    0    0    9    6    1    3  0.022  0.102  0.000  0.000  0.000  0.000
 Grain Filling Phase       32  32.1  23.9  28.0  19.2  24.00  398.6  114.1  121.7  168.1    0    0   32   16    0    9  0.277  0.363  0.000  0.000  0.000  0.000


 Planting to Harvest       93  32.2  24.1  28.1  17.0  24.00  398.5  358.7  325.5  442.7    0    0   91   54    1   27  0.245  0.320  0.000  0.001  0.000  0.000
----------------------------------------------------------------------------------------------------------------------------------------------------------------


*Resource Productivity
 Growing season length:  93 days 

 Precipitation during growing season       358.7 mm[rain]
   Dry Matter Productivity                  1.30 kg[DM]/m3[rain]          =   13.0 kg[DM]/ha per mm[rain]
   Yield Productivity                       0.54 kg[grain yield]/m3[rain] =    5.4 kg[yield]/ha per mm[rain]

 Evapotranspiration during growing season  325.5 mm[ET]
   Dry Matter Productivity                  1.44 kg[DM]/m3[ET]            =   14.4 kg[DM]/ha per mm[ET]
   Yield Productivity                       0.60 kg[grain yield]/m3[ET]   =    6.0 kg[yield]/ha per mm[ET]

 Transpiration during growing season        99.3 mm[EP]
   Dry Matter Productivity                  4.71 kg[DM]/m3[EP]            =   47.1 kg[DM]/ha per mm[EP]
   Yield Productivity                       1.96 kg[grain yield]/m3[EP]   =   19.6 kg[yield]/ha per mm[EP]

 N applied during growing season            142. kg[N applied]/ha
   Dry Matter Productivity                  32.9 kg[DM]/kg[N applied]
   Yield Productivity                       13.7 kg[yield]/kg[N applied]

 N uptake during growing season               58 kg[N uptake]/ha
   Dry Matter Productivity                  80.6 kg[DM]/kg[N uptake]
   Yield Productivity                       33.5 kg[yield]/kg[N uptake]

--------------------------------------------------------------------------------------------------------------

                     Maize YIELD :     1944 kg/ha    [Dry weight] 

**************************************************************************************************************

*DSSAT Cropping System Model Ver. 4.6.1.000 -release      MAY 05, 2017; 11:09:13
                                                                                
*RUN   8        : P8                        MZCER046 3\000003    8              
 MODEL          : MZCER046 - Maize                                              
 EXPERIMENT     : 3\000003 BN Calibracion Cerete 2013                           
 DATA PATH      : C:\L\0\00000                                                  
 TREATMENT  8   : P8                        MZCER046                            
                                                                                
                                                                                
 CROP           : Maize            CULTIVAR : PIO 30F35HRB_    ECOTYPE :IB0001  
 STARTING DATE  : MAY  8 2014                                                   
 PLANTING DATE  : MAY 23 2014        PLANTS/m2 :  6.2     ROW SPACING :  80.cm  
 WEATHER        : CCCR   2014                                                   
 SOIL           : CCCERE2017     TEXTURE : CL    -   Suelo Cerete Calibracio    
 SOIL INITIAL C : DEPTH:100cm EXTR. H2O: 82.9mm  NO3: 37.9kg/ha  NH4: 67.2kg/ha 
 WATER BALANCE  : RAINFED                                                       
 IRRIGATION     : NOT IRRIGATED                                                 
 NITROGEN BAL.  : SOIL-N & N-UPTAKE SIMULATION; NO N-FIXATION                   
 N-FERTILIZER   :      142 kg/ha IN     5 APPLICATIONS                          
 RESIDUE/MANURE : INITIAL :     0 kg/ha ;       0 kg/ha IN     0 APPLICATIONS   
 ENVIRONM. OPT. : DAYL=    0.00  SRAD=    0.00  TMAX=    0.00  TMIN=    0.00    
                  RAIN=    0.00  CO2 =    0.00  DEW =    0.00  WIND=    0.00    
 SIMULATION OPT : WATER   :Y  NITROGEN:Y  N-FIX:N  PHOSPH :N  PESTS  :N         
                  PHOTO   :C  ET      :R  INFIL:S  HYDROL :R  SOM    :G         
                  CO2 398ppm  NSWIT   :1  EVAP :S  SOIL   :2  STEMP  :D         
 MANAGEMENT OPT : PLANTING:R  IRRIG   :N  FERT :D  RESIDUE:R  HARVEST:M         
                  WEATHER :M  TILLAGE :N                                        
                                                                                
*SUMMARY OF SOIL AND GENETIC INPUT PARAMETERS                                   
                                                                                
   SOIL LOWER UPPER   SAT  EXTR  INIT   ROOT   BULK     pH    NO3    NH4    ORG 
  DEPTH LIMIT LIMIT    SW    SW    SW   DIST   DENS                          C  
   cm   cm3/cm3    cm3/cm3    cm3/cm3         g/cm3         ugN/g  ugN/g     %  
------------------------------------------------------------------------------- 
  0-  5 0.313 0.407 0.502 0.094 0.364   1.00   1.53   7.00   3.78   4.42   1.32 
  5- 15 0.313 0.407 0.502 0.094 0.364   1.00   1.53   7.00   3.78   4.42   1.32 
 15- 26 0.313 0.407 0.502 0.094 0.364   1.00   1.53   7.00   3.78   4.42   1.32 
 26- 51 0.318 0.397 0.511 0.079 0.372   0.37   1.49   7.60   2.27   4.49   0.44 
 51- 75 0.318 0.397 0.511 0.079 0.373   0.37   1.49   7.60   1.98   4.50   0.44 
 75-100 0.318 0.397 0.511 0.079 0.373   0.37   1.49   7.60   1.98   4.50   0.44 
                                                                                
TOT-100  31.7  40.0  50.9   8.3  37.0  <--cm   -  kg/ha-->   37.9   67.2 101024 
SOIL ALBEDO    : 0.09      EVAPORATION LIMIT : 6.00         MIN. FACTOR  : 1.00 
RUNOFF CURVE # :73.00      DRAINAGE RATE     : 0.05         FERT. FACTOR : 1.00 
                                                                                
 Maize      CULTIVAR :000003-PIO 30F35HRB_      ECOTYPE :IB0001                 
 P1     : 180.00  P2     : 0.3000  P5     : 850.00                              
 G2     : 800.00  G3     :  6.000  PHINT  : 43.000                              


*SIMULATED CROP AND SOIL STATUS AT MAIN DEVELOPMENT STAGES

 RUN NO.     8     P8                      

        CROP GROWTH     BIOMASS         LEAF   CROP N     STRESS      STRESS                                           
   DATE  AGE STAGE        kg/ha    LAI   NUM  kg/ha  %   H2O  Nitr Phos1 Phos2  RSTG                                   
 ------  --- ----------   -----  -----  ----  ---  ---  ----  ----  ----  ----  ----                                   
  8 MAY    0 Start Sim        0   0.00   0.0    0  0.0  0.00  0.00  0.00  0.00     7
 23 MAY    0 Sowing           0   0.00   0.0    0  0.0  0.00  0.00  0.00  0.00     8
 24 MAY    1 Germinate        0   0.00   0.0    0  0.0  0.00  0.00  0.00  0.00     9
 28 MAY    5 Emergence       25   0.00   2.2    1  4.4  0.00  0.01  0.00  0.00     1
  6 JUN   14 End Juveni      57   0.12   7.1    2  3.9  0.33  0.00  0.00  0.00     2
 13 JUN   21 Floral Ini      64   0.10  10.4    3  4.8  0.93  0.00  0.00  0.00     3
 12 JUL   50 75% Silkin    3067   1.49  21.6   61  2.0  0.20  0.00  0.00  0.00     4
 21 JUL   59 Beg Gr Fil    4524   1.40  21.6   62  1.4  0.22  0.00  0.00  0.00     5
 21 AUG   90 End Gr Fil    6896   0.72  21.6   75  1.1  0.36  0.00  0.00  0.00     6
 23 AUG   92 Maturity      6896   0.72  21.6   75  1.1  0.00  0.00  0.00  0.00    10
 23 AUG   92 Harvest       6896   0.72  21.6   75  1.1  0.00  0.00  0.00  0.00    10


*MAIN GROWTH AND DEVELOPMENT VARIABLES

@     VARIABLE                                         SIMULATED     MEASURED
      --------                                         ---------     --------
      Anthesis day (dap)                                      50           47
      Physiological maturity day (dap)                        92          103
      Yield at harvest maturity (kg [dm]/ha)                2467         8504
      Number at maturity (no/m2)                            1903         3027
      Unit wt at maturity (g [dm]/unit)                   0.1296        0.281
      Number at maturity (no/unit)                         307.0          484
      Tops weight at maturity (kg [dm]/ha)                  6896        20115
      By-product produced (stalk) at maturity (kg[dm]/ha    4456         7313
      Leaf area index, maximum                              1.49          -99
      Harvest index at maturity                            0.358         0.42
      Grain N at maturity (kg/ha)                             45          -99
      Tops N at maturity (kg/ha)                              75          -99
      Stem N at maturity (kg/ha)                              30          -99
      Grain N at maturity (%)                                1.8          -99
      Tops weight at anthesis (kg [dm]/ha)                  2871          -99
      Tops N at anthesis (kg/ha)                              59          -99
      Leaf number per stem at maturity                     21.61           20
      Emergence day (dap)                                      5          -99


*ENVIRONMENTAL AND STRESS FACTORS

 |-----Development Phase------|--------------------------------------Environment--------------------------------------|-----------------Stress-----------------|
                              |---------------Average--------------|-----Cumulative-----|--------Count of days--------|          (0=Min, 1=Max Stress)         |
                         Time  Temp  Temp  Temp Solar Photop                Evapo    Pot TMIN TMIN TMAX TMAX TMAX RAIN|----Water----|---Nitrogen--|-Phosphorus-|
                         Span   Max   Min  Mean   Rad  [day]    CO2   Rain  Trans     ET   <    <    >    >    >    >   Photo         Photo         Photo
                         days    øC    øC    øC MJ/m2     hr    ppm     mm     mm     mm  0øC  2øC 30øC 32øC 34øC  0mm  synth Growth  synth Growth  synth Growth
----------------------------------------------------------------------------------------------------------------------------------------------------------------
 Emergence-End Juvenile     9  32.3  23.9  28.1  14.3  24.00  398.4   18.0   18.8   37.6    0    0    9    7    0    4  0.154  0.228  0.002  0.006  0.000  0.000
 End Juvenil-Floral Init    7  32.1  24.4  28.2  15.8  24.00  398.4    0.0    9.4   32.1    0    0    7    2    0    0  0.884  0.923  0.002  0.005  0.000  0.000
 Floral Init-End Lf Grow   29  32.1  23.9  28.0  15.8  24.00  398.5  184.1  114.3  125.3    0    0   28   16    1   12  0.148  0.233  0.000  0.000  0.000  0.000
 End Lf Grth-Beg Grn Fil    9  31.8  24.2  28.0  19.3  24.00  398.6   15.2   40.6   45.7    0    0    9    3    0    2  0.135  0.197  0.000  0.000  0.000  0.000
 Grain Filling Phase       31  32.4  24.0  28.2  18.9  24.00  398.7  192.5  118.9  159.0    0    0   31   20    2   13  0.315  0.364  0.000  0.000  0.000  0.000


 Planting to Harvest       92  32.2  24.0  28.1  17.2  24.00  398.6  422.8  317.9  436.1    0    0   90   52    3   33  0.248  0.308  0.000  0.001  0.000  0.000
----------------------------------------------------------------------------------------------------------------------------------------------------------------


*Resource Productivity
 Growing season length:  92 days 

 Precipitation during growing season       422.8 mm[rain]
   Dry Matter Productivity                  1.63 kg[DM]/m3[rain]          =   16.3 kg[DM]/ha per mm[rain]
   Yield Productivity                       0.58 kg[grain yield]/m3[rain] =    5.8 kg[yield]/ha per mm[rain]

 Evapotranspiration during growing season  317.9 mm[ET]
   Dry Matter Productivity                  2.17 kg[DM]/m3[ET]            =   21.7 kg[DM]/ha per mm[ET]
   Yield Productivity                       0.78 kg[grain yield]/m3[ET]   =    7.8 kg[yield]/ha per mm[ET]

 Transpiration during growing season       125.9 mm[EP]
   Dry Matter Productivity                  5.48 kg[DM]/m3[EP]            =   54.8 kg[DM]/ha per mm[EP]
   Yield Productivity                       1.96 kg[grain yield]/m3[EP]   =   19.6 kg[yield]/ha per mm[EP]

 N applied during growing season            142. kg[N applied]/ha
   Dry Matter Productivity                  48.6 kg[DM]/kg[N applied]
   Yield Productivity                       17.4 kg[yield]/kg[N applied]

 N uptake during growing season               80 kg[N uptake]/ha
   Dry Matter Productivity                  86.2 kg[DM]/kg[N uptake]
   Yield Productivity                       30.8 kg[yield]/kg[N uptake]

--------------------------------------------------------------------------------------------------------------

                     Maize YIELD :     2467 kg/ha    [Dry weight] 

**************************************************************************************************************

*DSSAT Cropping System Model Ver. 4.6.1.000 -release      MAY 05, 2017; 11:09:13
                                                                                
*RUN   9        : P9                        MZCER046 3\000003    9              
 MODEL          : MZCER046 - Maize                                              
 EXPERIMENT     : 3\000003 BN Calibracion Cerete 2013                           
 DATA PATH      : C:\L\0\00000                                                  
 TREATMENT  9   : P9                        MZCER046                            
                                                                                
                                                                                
 CROP           : Maize            CULTIVAR : PIO 30F35HRB_    ECOTYPE :IB0001  
 STARTING DATE  : MAY 23 2014                                                   
 PLANTING DATE  : JUN  7 2014        PLANTS/m2 :  6.2     ROW SPACING :  80.cm  
 WEATHER        : CCCR   2014                                                   
 SOIL           : CCCERE2017     TEXTURE : CL    -   Suelo Cerete Calibracio    
 SOIL INITIAL C : DEPTH:100cm EXTR. H2O: 82.9mm  NO3: 37.9kg/ha  NH4: 67.2kg/ha 
 WATER BALANCE  : RAINFED                                                       
 IRRIGATION     : NOT IRRIGATED                                                 
 NITROGEN BAL.  : SOIL-N & N-UPTAKE SIMULATION; NO N-FIXATION                   
 N-FERTILIZER   :      142 kg/ha IN     5 APPLICATIONS                          
 RESIDUE/MANURE : INITIAL :     0 kg/ha ;       0 kg/ha IN     0 APPLICATIONS   
 ENVIRONM. OPT. : DAYL=    0.00  SRAD=    0.00  TMAX=    0.00  TMIN=    0.00    
                  RAIN=    0.00  CO2 =    0.00  DEW =    0.00  WIND=    0.00    
 SIMULATION OPT : WATER   :Y  NITROGEN:Y  N-FIX:N  PHOSPH :N  PESTS  :N         
                  PHOTO   :C  ET      :R  INFIL:S  HYDROL :R  SOM    :G         
                  CO2 398ppm  NSWIT   :1  EVAP :S  SOIL   :2  STEMP  :D         
 MANAGEMENT OPT : PLANTING:R  IRRIG   :N  FERT :D  RESIDUE:R  HARVEST:M         
                  WEATHER :M  TILLAGE :N                                        
                                                                                
*SUMMARY OF SOIL AND GENETIC INPUT PARAMETERS                                   
                                                                                
   SOIL LOWER UPPER   SAT  EXTR  INIT   ROOT   BULK     pH    NO3    NH4    ORG 
  DEPTH LIMIT LIMIT    SW    SW    SW   DIST   DENS                          C  
   cm   cm3/cm3    cm3/cm3    cm3/cm3         g/cm3         ugN/g  ugN/g     %  
------------------------------------------------------------------------------- 
  0-  5 0.313 0.407 0.502 0.094 0.364   1.00   1.53   7.00   3.78   4.42   1.32 
  5- 15 0.313 0.407 0.502 0.094 0.364   1.00   1.53   7.00   3.78   4.42   1.32 
 15- 26 0.313 0.407 0.502 0.094 0.364   1.00   1.53   7.00   3.78   4.42   1.32 
 26- 51 0.318 0.397 0.511 0.079 0.372   0.37   1.49   7.60   2.27   4.49   0.44 
 51- 75 0.318 0.397 0.511 0.079 0.373   0.37   1.49   7.60   1.98   4.50   0.44 
 75-100 0.318 0.397 0.511 0.079 0.373   0.37   1.49   7.60   1.98   4.50   0.44 
                                                                                
TOT-100  31.7  40.0  50.9   8.3  37.0  <--cm   -  kg/ha-->   37.9   67.2 101024 
SOIL ALBEDO    : 0.09      EVAPORATION LIMIT : 6.00         MIN. FACTOR  : 1.00 
RUNOFF CURVE # :73.00      DRAINAGE RATE     : 0.05         FERT. FACTOR : 1.00 
                                                                                
 Maize      CULTIVAR :000003-PIO 30F35HRB_      ECOTYPE :IB0001                 
 P1     : 180.00  P2     : 0.3000  P5     : 850.00                              
 G2     : 800.00  G3     :  6.000  PHINT  : 43.000                              


*SIMULATED CROP AND SOIL STATUS AT MAIN DEVELOPMENT STAGES

 RUN NO.     9     P9                      

        CROP GROWTH     BIOMASS         LEAF   CROP N     STRESS      STRESS                                           
   DATE  AGE STAGE        kg/ha    LAI   NUM  kg/ha  %   H2O  Nitr Phos1 Phos2  RSTG                                   
 ------  --- ----------   -----  -----  ----  ---  ---  ----  ----  ----  ----  ----                                   
 23 MAY    0 Start Sim        0   0.00   0.0    0  0.0  0.00  0.00  0.00  0.00     7
  7 JUN    0 Sowing           0   0.00   0.0    0  0.0  0.00  0.00  0.00  0.00     8
  8 JUN    1 Germinate        0   0.00   0.0    0  0.0  0.00  0.00  0.00  0.00     9
 12 JUN    5 Emergence       25   0.00   2.2    1  4.4  0.00  0.01  0.00  0.00     1
 21 JUN   14 End Juveni      89   0.19   7.0    3  3.0  0.09  0.00  0.00  0.00     2
 28 JUN   21 Floral Ini     318   0.58  10.3   11  3.6  0.03  0.00  0.00  0.00     3
 27 JUL   50 75% Silkin    5282   2.73  21.5  115  2.2  0.23  0.00  0.00  0.00     4
  4 AUG   58 Beg Gr Fil    5477   2.04  21.5  115  2.1  0.81  0.00  0.00  0.00     5
  5 SEP   90 End Gr Fil    6859   1.37  21.5  115  1.7  0.00  0.00  0.00  0.00     6
  7 SEP   92 Maturity      6859   1.37  21.5  115  1.7  0.00  0.00  0.00  0.00    10
  7 SEP   92 Harvest       6859   1.37  21.5  115  1.7  0.00  0.00  0.00  0.00    10


*MAIN GROWTH AND DEVELOPMENT VARIABLES

@     VARIABLE                                         SIMULATED     MEASURED
      --------                                         ---------     --------
      Anthesis day (dap)                                      50           45
      Physiological maturity day (dap)                        92          103
      Yield at harvest maturity (kg [dm]/ha)                1407        10153
      Number at maturity (no/m2)                             875         3110
      Unit wt at maturity (g [dm]/unit)                   0.1607        0.326
      Number at maturity (no/unit)                         141.2          498
      Tops weight at maturity (kg [dm]/ha)                  6859        22004
      By-product produced (stalk) at maturity (kg[dm]/ha    5505         8732
      Leaf area index, maximum                              3.11          -99
      Harvest index at maturity                            0.205         0.46
      Grain N at maturity (kg/ha)                             25          -99
      Tops N at maturity (kg/ha)                             115          -99
      Stem N at maturity (kg/ha)                              90          -99
      Grain N at maturity (%)                                1.8          -99
      Tops weight at anthesis (kg [dm]/ha)                  5220          -99
      Tops N at anthesis (kg/ha)                             115          -99
      Leaf number per stem at maturity                     21.54           20
      Emergence day (dap)                                      5          -99


*ENVIRONMENTAL AND STRESS FACTORS

 |-----Development Phase------|--------------------------------------Environment--------------------------------------|-----------------Stress-----------------|
                              |---------------Average--------------|-----Cumulative-----|--------Count of days--------|          (0=Min, 1=Max Stress)         |
                         Time  Temp  Temp  Temp Solar Photop                Evapo    Pot TMIN TMIN TMAX TMAX TMAX RAIN|----Water----|---Nitrogen--|-Phosphorus-|
                         Span   Max   Min  Mean   Rad  [day]    CO2   Rain  Trans     ET   <    <    >    >    >    >   Photo         Photo         Photo
                         days    øC    øC    øC MJ/m2     hr    ppm     mm     mm     mm  0øC  2øC 30øC 32øC 34øC  0mm  synth Growth  synth Growth  synth Growth
----------------------------------------------------------------------------------------------------------------------------------------------------------------
 Emergence-End Juvenile     9  31.5  24.2  27.8  14.9  24.00  398.5   69.0   33.0   39.4    0    0    8    3    0    4  0.075  0.087  0.002  0.005  0.000  0.000
 End Juvenil-Floral Init    7  32.2  24.1  28.1  14.6  24.00  398.5   46.0   29.5   29.5    0    0    7    5    0    3  0.000  0.031  0.001  0.002  0.000  0.000
 Floral Init-End Lf Grow   29  32.2  23.8  28.0  18.9  24.00  398.6   84.5  121.8  141.8    0    0   29   15    1    8  0.135  0.207  0.000  0.000  0.000  0.000
 End Lf Grth-Beg Grn Fil    8  32.1  24.1  28.1  16.0  24.00  398.7    3.7   13.2   32.5    0    0    8    3    0    3  0.688  0.792  0.000  0.000  0.000  0.000
 Grain Filling Phase       32  32.5  23.9  28.2  18.7  23.19  398.8  255.9  150.3  155.0    0    0   31   22    3   15  0.027  0.028  0.000  0.000  0.000  0.000


 Planting to Harvest       92  32.2  23.9  28.1  17.5  23.58  398.6  463.6  363.6  427.3    0    0   90   50    4   34  0.119  0.155  0.000  0.001  0.000  0.000
----------------------------------------------------------------------------------------------------------------------------------------------------------------


*Resource Productivity
 Growing season length:  92 days 

 Precipitation during growing season       463.6 mm[rain]
   Dry Matter Productivity                  1.48 kg[DM]/m3[rain]          =   14.8 kg[DM]/ha per mm[rain]
   Yield Productivity                       0.30 kg[grain yield]/m3[rain] =    3.0 kg[yield]/ha per mm[rain]

 Evapotranspiration during growing season  363.6 mm[ET]
   Dry Matter Productivity                  1.89 kg[DM]/m3[ET]            =   18.9 kg[DM]/ha per mm[ET]
   Yield Productivity                       0.39 kg[grain yield]/m3[ET]   =    3.9 kg[yield]/ha per mm[ET]

 Transpiration during growing season       215.0 mm[EP]
   Dry Matter Productivity                  3.19 kg[DM]/m3[EP]            =   31.9 kg[DM]/ha per mm[EP]
   Yield Productivity                       0.65 kg[grain yield]/m3[EP]   =    6.5 kg[yield]/ha per mm[EP]

 N applied during growing season            142. kg[N applied]/ha
   Dry Matter Productivity                  48.3 kg[DM]/kg[N applied]
   Yield Productivity                        9.9 kg[yield]/kg[N applied]

 N uptake during growing season              125 kg[N uptake]/ha
   Dry Matter Productivity                  54.9 kg[DM]/kg[N uptake]
   Yield Productivity                       11.3 kg[yield]/kg[N uptake]

--------------------------------------------------------------------------------------------------------------

                     Maize YIELD :     1407 kg/ha    [Dry weight] 

**************************************************************************************************************
