*GROWTH ASPECTS OUTPUT FILE

*DSSAT Cropping System Model Ver. 4.6.1.000 -release      AUG 23, 2017; 14:09:36
                                                                                
*RUN   1        : P1                        MZCER046 3\000003    1              
 MODEL          : MZCER046 - Maize                                              
 EXPERIMENT     : 3\000003 BN Calibracion Cerete 2013                           
 DATA PATH      : C:\L\0\00000                                                  
 TREATMENT  1   : P1                        MZCER046                            
  
!                                                                                                                                                                                                                                      Root Dens. (cm/cm3) by soil depth (cm):
!                                                                                                                                                                                                                                      0-5    5-15   15-30   30-53   53-77  77-100
@YEAR DOY   DAS   DAP   L#SD   GSTD   LAID   LWAD   SWAD   GWAD   RWAD   VWAD   CWAD   G#AD   GWGD   HIAD   PWAD   P#AD   WSPD   WSGD   NSTD   EWSD  PST1A  PST2A   KSTD   LN%D   SH%D   HIPD   PWDD   PWTD     SLAD   CHTD   CWID   RDPD    RL1D    RL2D    RL3D    RL4D    RL5D    RL6D   CDAD   LDAD   SDAD   SNW0C   SNW1C  DTTD
 2013 105     1     0    0.0      0   0.00      0      0      0      0      0      0      0    0.0  0.000      0      0  0.000  0.000  0.000  0.000  0.000  0.000  0.000   0.00   0.00   0.00      0      0      0.0   0.00   0.00   0.05    0.00    0.00    0.00    0.00    0.00    0.00      0      0      0       0       0 20.95
 2013 106     2     1    0.0      0   0.00      0      0      0      0      0      0      0    0.0  0.000      0      0  0.000  0.000  0.000  0.000  0.000  0.000  0.000   0.00   0.00   0.00      0      0      0.0   0.00   0.00   0.08    0.00    0.00    0.00    0.00    0.00    0.00      0      0      0       0       0 22.14
 2013 107     3     2    0.0      0   0.00      0      0      0      0      0      0      0    0.0  0.000      0      0  0.000  0.000  0.000  0.000  0.000  0.000  0.000   0.00   0.00   0.00      0      0      0.0   0.00   0.00   0.12    0.00    0.00    0.00    0.00    0.00    0.00      0      0      0       0       0 22.43
 2013 108     4     3    0.0      0   0.00      0      0      0      0      0      0      0    0.0  0.000      0      0  0.000  0.000  0.000  0.000  0.000  0.000  0.000   0.00   0.00   0.00      0      0      0.0   0.00   0.00   0.15    0.00    0.00    0.00    0.00    0.00    0.00      0      0      0       0       0 21.50
 2013 109     5     4    0.0      0   0.00      0      0      0      0      0      0      0    0.0  0.000      0      0  0.000  0.000  0.000  0.000  0.000  0.000  0.000   0.00   0.00   0.00      0      0      0.0   0.00   0.00   0.18    0.00    0.00    0.00    0.00    0.00    0.00      0      0      0       0       0 17.84
 2013 110     6     5    2.0      1   0.00     12     12      0     12     25     25      0    0.0  0.000      0      0  0.000  0.000  0.012  0.000  0.000  0.000  0.000   4.40   0.00   0.00      0      0     30.1   0.00   0.00   0.20    0.25    0.12    0.01    0.00    0.00    0.00      0      0      0       0       0 19.69
 2013 111     7     6    2.0      1   0.01     12     12      0     13     25     25      0    0.0  0.000      0      0  0.000  0.000  0.009  0.000  0.000  0.000  0.000   4.40   0.00   0.00      0      0     55.8   0.00   0.00   0.21    0.25    0.13    0.01    0.00    0.00    0.00      0      0      0       0       0 17.24
 2013 112     8     7    3.0      1   0.01     12     12      0     13     25     25      0    0.0  0.000      0      0  0.000  0.000  0.000  0.000  0.000  0.000  0.000   4.40   0.00   0.00      0      0     89.7   0.01   0.00   0.23    0.26    0.13    0.01    0.00    0.00    0.00      0      0      0       0       0 19.74
 2013 113     9     8    3.0      1   0.02     12     12      0     14     25     25      0    0.0  0.000      0      0  0.000  0.000  0.000  0.000  0.000  0.000  0.000   4.40   0.00   0.00      0      0    124.8   0.01   0.00   0.25    0.27    0.14    0.02    0.00    0.00    0.00      0      0      0       0       0 18.50
 2013 114    10     9    4.0      1   0.03     12     12      0     17     25     25      0    0.0  0.000      0      0  0.000  0.000  0.000  0.000  0.000  0.000  0.000   4.40   0.00   0.00      0      0    258.2   0.02   0.00   0.27    0.29    0.16    0.03    0.00    0.00    0.00      0      0      0       0       0 20.61
 2013 115    11    10    4.0      1   0.05     16     12      0     20     28     28      0    0.0  0.000      0      0  0.000  0.000  0.000  0.000  0.000  0.000  0.000   3.87   0.00   0.00      0      0    326.6   0.03   0.00   0.29    0.32    0.18    0.04    0.00    0.00    0.00      0      0      0       0       0 20.85
 2013 116    12    11    5.0      1   0.08     26     12      0     22     38     38      0    0.0  0.000      0      0  0.000  0.000  0.000  0.000  0.000  0.000  0.000   3.01   0.00   0.00      0      0    295.9   0.04   0.00   0.31    0.34    0.20    0.05    0.00    0.00    0.00      0      0      0       0       0 21.66
 2013 117    13    12    5.0      1   0.10     38     12      0     27     50     50      0    0.0  0.000      0      0  0.000  0.000  0.000  0.000  0.000  0.000  0.000   3.03   0.00   0.00      0      0    273.6   0.06   0.00   0.33    0.39    0.24    0.08    0.00    0.00    0.00      0      0      0       0       0 21.04
 2013 118    14    13    6.0      1   0.13     52     12      0     33     64     64      0    0.0  0.000      0      0  0.000  0.000  0.000  0.000  0.000  0.000  0.000   3.05   0.00   0.00      0      0    256.4   0.07   0.00   0.34    0.43    0.29    0.10    0.00    0.00    0.00      0      0      0       0       0 20.51
 2013 119    15    14    6.0      2   0.17     64     12      0     39     76     76      0    0.0  0.000      0      0  0.000  0.000  0.000  0.000  0.000  0.000  0.000   3.23   0.00   0.00      0      0    262.2   0.09   0.00   0.35    0.43    0.34    0.14    0.00    0.00    0.00      0      0      0       0       1 18.72
 2013 120    16    15    6.0      2   0.21     85     12      0     51     98     98      0    0.0  0.000      0      0  0.000  0.000  0.008  0.000  0.000  0.000  0.000   3.03   0.00   0.00      0      0    247.0   0.11   0.00   0.37    0.43    0.47    0.21    0.00    0.00    0.00      0      0      0       0       1 21.05
 2013 121    17    16    7.0      2   0.25    108     12      0     60    121    121      0    0.0  0.000      0      0  0.000  0.000  0.000  0.000  0.000  0.000  0.000   3.12   0.00   0.00      0      0    235.2   0.14   0.00   0.39    0.47    0.53    0.26    0.01    0.00    0.00      0      0      0       0       1 18.42
 2013 122    18    17    7.0      2   0.31    140     12      0     76    152    152      0    0.0  0.000      0      0  0.000  0.000  0.000  0.000  0.000  0.000  0.000   3.01   0.00   0.00      0      0    223.1   0.17   0.00   0.41    0.56    0.64    0.36    0.01    0.00    0.00      0      0      0       0       1 21.54
 2013 123    19    18    8.0      2   0.36    168     12      0     83    181    181      0    0.0  0.000      0      0  0.000  0.000  0.000  0.000  0.000  0.000  0.000   3.78   0.00   0.00      0      0    214.5   0.19   0.00   0.43    0.59    0.67    0.41    0.02    0.00    0.00      0      0      0       0       2 17.34
 2013 124    20    19    8.0      2   0.43    208     12      0    110    221    221      0    0.0  0.000      0      0  0.000  0.000  0.000  0.000  0.000  0.000  0.000   3.74   0.00   0.00      0      0    205.2   0.23   0.00   0.45    0.73    0.78    0.58    0.06    0.00    0.00      0      0      0       0       2 20.68
 2013 125    21    20    8.0      2   0.49    247     12      0    119    259    259      0    0.0  0.000      0      0  0.000  0.000  0.000  0.000  0.000  0.000  0.000   3.69   0.00   0.00      0      0    198.1   0.26   0.00   0.47    0.76    0.82    0.64    0.07    0.00    0.00      0      0      0       0       3 17.55
 2013 126    22    21    9.0      3   0.56    296     13      0    140    308    308      0    0.0  0.000      0      0  0.000  0.000  0.000  0.000  0.000  0.000  0.000   3.61   0.00   0.00      0      0    190.2   0.30   0.00   0.49    0.86    0.91    0.77    0.10    0.00    0.00      0      0      0       0       3 20.01
 2013 127    23    22    9.0      3   0.63    339     13      0    143    352    352      0    0.0  0.000      0      0  0.000  0.000  0.000  0.000  0.000  0.000  0.000   3.55   0.00   0.00      0      0    185.7   0.34   0.00   0.50    0.87    0.92    0.79    0.11    0.00    0.00      0      0      0       0       4 15.70
 2013 128    24    23   10.0      3   0.72    397     14      0    171    412    412      0    0.0  0.000      0      0  0.000  0.000  0.000  0.000  0.000  0.000  0.000   3.49   0.00   0.00      0      0    180.4   0.39   0.00   0.52    0.99    1.03    0.95    0.17    0.00    0.00      0      0      0       0       5 19.24
 2013 129    25    24   10.0      3   0.81    461     17      0    186    478    478      0    0.0  0.000      0      0  0.000  0.000  0.000  0.000  0.000  0.000  0.000   3.44   0.00   0.00      0      0    175.5   0.44   0.00   0.54    1.07    1.08    1.03    0.20    0.00    0.00      0      0      0       0       5 18.75
 2013 130    26    25   10.0      3   0.92    537     23      0    234    560    560      0    0.0  0.000      0      0  0.000  0.000  0.000  0.000  0.000  0.000  0.000   3.38   0.00   0.00      0      0    170.6   0.49   0.00   0.57    1.79    1.20    1.20    0.28    0.01    0.00      0      0      0       0       6 20.19
 2013 131    27    26   11.0      3   1.03    623     32      0    259    654    654      0    0.0  0.000      0      0  0.000  0.000  0.000  0.000  0.000  0.000  0.000   3.33   0.00   0.00      0      0    165.9   0.56   0.00   0.59    2.19    1.22    1.28    0.33    0.02    0.00      0      0      0       0       8 20.27
 2013 132    28    27   11.0      3   1.16    715     45      0    300    760    760      0    0.0  0.000      0      0  0.000  0.000  0.000  0.000  0.000  0.000  0.000   3.27   0.00   0.00      0      0    161.6   0.62   0.00   0.61    2.67    1.52    1.37    0.37    0.04    0.00      0      0      0       0       9 19.80
 2013 133    29    28   12.0      3   1.30    826     66      0    310    892    892      0    0.0  0.000      0      0  0.000  0.000  0.000  0.000  0.000  0.000  0.000   3.22   0.00   0.00      0      0    157.3   0.70   0.00   0.63    2.76    1.61    1.39    0.38    0.04    0.00      0      0      0       0      10 18.70
 2013 134    30    29   12.0      3   1.45    948     95      0    337   1044   1044      0    0.0  0.000      0      0  0.000  0.000  0.000  0.000  0.000  0.000  0.000   3.17   0.00   0.00      0      0    153.2   0.78   0.00   0.65    2.98    1.81    1.47    0.40    0.06    0.00      0      0      0       0      12 20.05
 2013 135    31    30   12.0      3   1.58   1054    126      0    343   1181   1181      0    0.0  0.000      0      0  0.000  0.000  0.000  0.000  0.000  0.000  0.000   3.13   0.00   0.00      0      0    150.1   0.85   0.00   0.67    3.02    1.85    1.50    0.40    0.06    0.00      0      0      0       0      14 17.55
 2013 136    32    31   13.0      3   1.73   1181    172      0    375   1353   1353      0    0.0  0.000      0      0  0.000  0.000  0.000  0.000  0.000  0.000  0.000   3.08   0.00   0.00      0      0    146.8   0.93   0.00   0.69    3.21    2.06    1.64    0.43    0.08    0.00      0      0      0       0      15 19.85
 2013 137    33    32   13.0      3   1.83   1259    204      0    380   1463   1463      0    0.0  0.000      0      0  0.000  0.000  0.000  0.000  0.000  0.000  0.000   3.03   0.00   0.00      0      0    145.0   0.98   0.00   0.70    3.22    2.09    1.66    0.43    0.08    0.00      0      0      0       0      17 17.05
 2013 138    34    33   14.0      3   1.97   1385    266      0    453   1652   1652      0    0.0  0.000      0      0  0.000  0.000  0.000  0.000  0.000  0.000  0.000   2.99   0.00   0.00      0      0    142.4   1.06   0.00   0.72    3.55    2.53    2.02    0.50    0.14    0.00      0      0      0       0      19 19.10
 2013 139    35    34   14.0      3   2.09   1484    322      0    460   1806   1806      0    0.0  0.000      0      0  0.000  0.000  0.000  0.000  0.000  0.000  0.000   2.94   0.00   0.00      0      0    140.5   1.12   0.00   0.74    3.57    2.57    2.05    0.51    0.15    0.00      0      0      0       0      21 17.35
 2013 140    36    35   14.0      3   2.23   1609    402      0    528   2011   2011      0    0.0  0.000      0      0  0.000  0.000  0.000  0.000  0.000  0.000  0.000   2.90   0.00   0.00      0      0    138.3   1.20   0.00   0.76    3.89    2.95    2.36    0.58    0.21    0.00      0      0      0       0      24 18.20
 2013 141    37    36   15.0      3   2.34   1713    477      0    535   2191   2191      0    0.0  0.000      0      0  0.000  0.000  0.000  0.000  0.000  0.000  0.000   2.86   0.00   0.00      0      0    136.6   1.26   0.00   0.78    3.89    2.99    2.40    0.58    0.22    0.00      0      0      0       0      26 17.30
 2013 142    38    37   15.0      3   2.54   1897    552      0    547   2449   2449      0    0.0  0.000      0      0  0.000  0.000  0.000  0.000  0.000  0.000  0.000   2.81   0.00   0.00      0      0    133.9   1.37   0.00   0.80    3.90    3.05    2.46    0.60    0.24    0.00      0      0      0       0      29 19.10
 2013 143    39    38   15.0      3   2.66   2009    672      0    557   2681   2681      0    0.0  0.000      0      0  0.000  0.000  0.000  0.000  0.000  0.000  0.000   2.78   0.00   0.00      0      0    132.4   1.43   0.00   0.82    3.89    3.07    2.51    0.62    0.26    0.01      0      0      0       0      32 16.45
 2013 144    40    39   16.0      3   2.76   2103    812      0    567   2915   2915      0    0.0  0.000      0      0  0.000  0.000  0.000  0.000  0.000  0.000  0.000   2.73   0.00   0.00      0      0    131.2   1.49   0.00   0.84    3.87    3.07    2.55    0.64    0.29    0.02      0      0      0       0      34 18.00
 2013 145    41    40   16.0      3   2.88   2220   1016      0    582   3237   3242      0    0.0  0.000      6      0  0.000  0.000  0.000  0.000  0.000  0.000  0.000   2.62   0.00   0.00      0      6    129.9   1.55   0.00   0.86    3.86    3.06    2.57    0.68    0.34    0.05      0      0      0       0      37 18.90
 2013 146    42    41   17.0      3   2.96   2291   1156      0    591   3447   3457      0    0.0  0.000     10      0  0.000  0.000  0.000  0.000  0.000  0.000  0.000   2.57   0.00   0.00      0     10    129.1   1.59   0.00   0.87    3.84    3.05    2.57    0.70    0.38    0.07      0      0      0       0      40 16.75
 2013 147    43    42   17.0      3   3.05   2386   1359      0    606   3744   3765      0    0.0  0.000     21      0  0.000  0.000  0.000  0.000  0.000  0.000  0.000   2.45   0.00   0.01      0     21    128.1   1.60   0.00   0.89    3.83    3.04    2.56    0.73    0.42    0.12      0      0      0       0      43 19.20
 2013 148    44    43   17.0      3   3.14   2464   1541      0    618   4006   4039      0    0.0  0.000     33      0  0.000  0.000  0.000  0.000  0.000  0.000  0.000   2.35   0.00   0.01      0     33    127.2   1.60   0.00   0.91    3.83    3.04    2.56    0.74    0.46    0.18      0      0      0       0      46 19.15
 2013 149    45    44   18.0      3   3.22   2546   1732      0    648   4278   4337      0    0.0  0.000     59      0  0.000  0.000  0.004  0.000  0.000  0.000  0.000   2.25   0.00   0.01      0     59    126.4   1.60   0.00   0.93    3.84    3.06    2.58    0.75    0.53    0.33      0      0      0       0      49 18.00
 2013 150    46    45   18.0      3   3.28   2616   1903      0    660   4519   4604      0    0.0  0.000     85      0  0.000  0.000  0.018  0.000  0.000  0.000  0.000   2.39   0.00   0.02      0     85    125.4   1.60   0.00   0.95    4.00    3.05    2.57    0.74    0.53    0.35      0      0      0       0      53 18.30
 2013 151    47    46   19.0      3   3.35   2689   2078      0    672   4767   4893      0    0.0  0.000    126      0  0.000  0.000  0.000  0.000  0.000  0.000  0.000   2.48   0.00   0.03      0    126    124.7   1.60   0.00   0.97    4.00    3.03    2.57    0.74    0.53    0.36      0      0      0       0      56 18.60
 2013 152    48    47   19.0      3   3.43   2762   2237      0    710   4999   5194      0    0.0  0.000    195      0  0.000  0.000  0.000  0.000  0.000  0.000  0.000   2.46   0.00   0.04      0    195    124.1   1.60   0.00   0.99    4.00    3.03    2.57    0.74    0.53    0.40      0      0      0       0      59 18.75
 2013 153    49    48   19.0      3   3.50   2833   2366      0    755   5199   5486      0    0.0  0.000    286      0  0.000  0.000  0.000  0.000  0.000  0.000  0.000   2.43   0.00   0.05      0    286    123.5   1.60   0.00   1.00    4.00    3.27    2.56    0.74    0.53    0.44      0      0      0       0      63 18.20
 2013 154    50    49   19.0      3   3.57   2901   2487      0    767   5389   5765      0    0.0  0.000    376      0  0.000  0.000  0.000  0.000  0.000  0.000  0.000   2.39   0.00   0.07      0    376    122.9   1.60   0.00   1.00    4.00    3.36    2.55    0.74    0.53    0.44      0      0      0       0      67 18.05
 2013 155    51    50   19.0      3   3.64   2974   2574      0    797   5548   6059      0    0.0  0.000    511      0  0.000  0.000  0.000  0.000  0.000  0.000  0.000   2.37   0.00   0.08      0    511    122.3   1.60   0.00   1.00    4.00    3.60    2.55    0.73    0.53    0.46      0      0      0       0      70 18.30
 2013 156    52    51   19.0      3   3.71   3047   2614      0    852   5661   6357      0    0.0  0.000    696      0  0.000  0.000  0.000  0.000  0.000  0.000  0.000   2.36   0.00   0.11      0    696    121.7   1.60   0.00   1.00    4.00    4.00    2.55    0.73    0.53    0.49      0      0      0       0      74 18.50
 2013 157    53    52   19.0      3   3.78   3115   2670      0    863   5785   6632      0    0.0  0.000    846      0  0.000  0.000  0.000  0.000  0.000  0.000  0.000   2.30   0.00   0.13      0    846    121.2   1.60   0.00   1.00    4.00    4.00    2.54    0.73    0.53    0.50      0      0      0       0      74 17.90
 2013 158    54    53   19.0      4   3.60   3082   2801      0    874   5883   6951      0    0.0  0.000   1068      0  0.000  0.000  0.000  0.000  0.000  0.000  0.000   2.31   0.00   0.15      0   1068    116.9   1.60   0.00   1.00    4.00    4.00    2.53    0.73    0.53    0.50      0      0      0       0      79 18.05
 2013 159    55    54   19.0      4   3.59   3047   2911      0    885   5958   7272      0    0.0  0.000   1314      0  0.000  0.000  0.000  0.000  0.000  0.000  0.000   2.28   0.00   0.18      0   1314    117.7   1.60   0.00   1.00    4.00    4.00    2.52    0.72    0.52    0.51      0      0      0       0      79 17.95
 2013 160    56    55   19.0      4   3.57   3008   3005      0    896   6013   7592      0    0.0  0.000   1579      0  0.000  0.000  0.000  0.000  0.000  0.000  0.000   2.26   0.00   0.21      0   1579    118.6   1.60   0.00   1.00    4.00    4.00    2.51    0.72    0.52    0.51      0      0      0       0      79 19.00
 2013 161    57    56   19.0      4   3.55   2967   3065      0    903   6032   7822      0    0.0  0.000   1790      0  0.000  0.000  0.000  0.000  0.000  0.000  0.000   2.25   0.00   0.23      0   1790    119.7   1.60   0.00   1.00    4.00    4.00    2.50    0.72    0.52    0.52      0      0      0       0      79 18.50
 2013 162    58    57   19.0      4   3.53   2923   3119      0    911   6041   8058      0    0.0  0.000   2016      0  0.000  0.000  0.000  0.000  0.000  0.000  0.000   2.25   0.00   0.25      0   2016    120.9   1.60   0.00   1.00    3.98    4.00    2.49    0.71    0.52    0.53      0      0      0       0      79 18.25
 2013 163    59    58   19.0      4   3.52   2875   3274      0    921   6150   8349      0    0.0  0.000   2199      0  0.021  0.348  0.000  0.000  0.000  0.000  0.000   2.21   0.00   0.26      0   2199    122.3   1.60   0.00   1.00    4.00    4.00    2.48    0.71    0.52    0.54      0      0      0       0      79 18.60
 2013 164    60    59   19.0      4   3.50   2825   3331      0    933   6156   8665      0    0.0  0.000   2509      0  0.000  0.000  0.000  0.000  0.000  0.000  0.000   2.21   0.00   0.29      0   2509    123.8   1.60   0.00   1.00    4.00    4.00    2.47    0.71    0.51    0.54      0      0      0       0      79 19.80
 2013 165    61    60   19.0      4   3.42   2772   3470      0    937   6242   8813      0    0.0  0.000   2571      0  0.452  0.635  0.000  0.000  0.000  0.000  0.000   2.18   0.00   0.29      0   2571    123.4   1.60   0.00   1.00    4.00    4.00    2.46    0.70    0.51    0.55      0      0      0       0      79 19.25
 2013 166    62    61   19.0      4   3.33   2715   3583      0    939   6298   8912      0    0.0  0.000   2614      0  0.523  0.683  0.000  0.000  0.000  0.000  0.000   2.16   0.00   0.29      0   2614    122.6   1.60   0.00   1.00    3.98    4.00    2.45    0.70    0.51    0.55      0      0      0       0      79 19.40
 2013 167    63    62   19.0      5   3.22   2715   3583     88    945   6298   9000   2602    3.4  0.010   2702      6  0.663  0.776  0.000  0.000  0.000  0.000  0.000   2.13   3.26   0.30      0   2702    118.6   1.60   0.00   1.00    3.96    4.00    2.45    0.70    0.51    0.57      0      0      0       0      79 20.45
 2013 168    64    63   19.0      5   3.11   2715   3583    176    948   6298   9088   2602    6.8  0.019   2790      6  0.672  0.782  0.000  0.000  0.000  0.000  0.000   2.11   6.31   0.31      0   2790    114.6   1.60   0.00   1.00    3.94    4.00    2.44    0.70    0.51    0.59      0      0      0       0      79 20.40
 2013 169    65    64   19.0      5   3.00   2715   3583    266    946   6298   9177   2602   10.2  0.029   2879      6  0.725  0.817  0.000  0.000  0.000  0.000  0.000   2.08   9.22   0.31      0   2879    110.4   1.60   0.00   1.00    3.92    3.99    2.44    0.69    0.51    0.60      0      0      0       0      79 19.95
 2013 170    66    65   19.0      5   2.90   2715   3575    363    941   6290   9267   2602   14.0  0.039   2977      6  0.676  0.784  0.000  0.000  0.000  0.000  0.000   2.05  12.20   0.32      0   2977    106.7   1.60   0.00   1.00    3.92    3.99    2.44    0.69    0.51    0.60      0      0      0       0      79 19.65
 2013 171    67    66   19.0      5   2.78   2715   3564    447    936   6279   9341   2602   17.2  0.048   3061      6  0.798  0.866  0.000  0.000  0.000  0.000  0.000   2.03  14.62   0.33      0   3061    102.4   1.60   0.00   1.00    3.92    3.99    2.44    0.69    0.51    0.60      0      0      0       0      79 19.90
 2013 172    68    67   19.0      5   2.67   2715   3541    537    932   6256   9407   2602   20.6  0.057   3151      6  0.824  0.883  0.000  0.000  0.000  0.000  0.000   2.01  17.05   0.33      0   3151     98.2   1.60   0.00   1.00    3.92    3.99    2.44    0.69    0.51    0.60      0      0      0       0      79 19.25
 2013 173    69    68   19.0      5   2.56   2715   3517    622    927   6232   9468   2602   23.9  0.066   3236      6  0.804  0.870  0.000  0.000  0.000  0.000  0.000   1.99  19.22   0.34      0   3236     94.3   1.60   0.00   1.00    3.92    3.99    2.44    0.69    0.51    0.60      0      0      0       0      79 19.80
 2013 174    70    69   19.0      5   2.46   2715   3490    704    922   6205   9523   2602   27.1  0.074   3318      6  0.798  0.866  0.000  0.000  0.000  0.000  0.000   1.98  21.23   0.35      0   3318     90.5   1.60   0.00   1.00    3.92    3.99    2.44    0.69    0.51    0.60      0      0      0       0      79 20.05
 2013 175    71    70   19.0      5   2.36   2715   3460    786    918   6175   9575   2602   30.2  0.082   3400      6  0.825  0.884  0.000  0.000  0.000  0.000  0.000   1.96  23.13   0.36      0   3400     86.8   1.60   0.00   1.00    3.92    3.99    2.44    0.69    0.51    0.60      0      0      0       0      79 19.90
 2013 176    72    71   19.0      5   2.25   2715   3430    863    913   6146   9623   2602   33.2  0.090   3477      6  0.872  0.915  0.000  0.000  0.000  0.000  0.000   1.95  24.83   0.36      0   3477     83.0   1.60   0.00   1.00    3.92    3.99    2.44    0.69    0.51    0.60      0      0      0       0      79 20.00
 2013 177    73    72   19.0      5   2.16   2715   3406    931    909   6122   9667   2602   35.8  0.096   3545      6  0.863  0.909  0.000  0.000  0.000  0.000  0.000   1.93  26.27   0.37      0   3545     79.4   1.60   0.00   1.00    3.92    3.99    2.44    0.69    0.51    0.60      0      0      0       0      79 20.83
 2013 178    74    73   19.0      5   2.06   2715   3386    992    904   6101   9707   2602   38.1  0.102   3606      6  0.861  0.908  0.000  0.000  0.000  0.000  0.000   1.92  27.52   0.37      0   3606     76.0   1.60   0.00   1.00    3.92    3.99    2.44    0.69    0.51    0.60      0      0      0       0      79 21.43
 2013 179    75    74   19.0      5   1.97   2715   3350   1072    900   6065   9751   2602   41.2  0.110   3686      6  0.859  0.906  0.000  0.000  0.000  0.000  0.000   1.91  29.08   0.38      0   3686     72.7   1.60   0.00   1.00    3.92    3.99    2.44    0.69    0.51    0.60      0      0      0       0      79 19.90
 2013 180    76    75   19.0      5   1.93   2715   3391   1183    916   6106   9904   2602   45.5  0.119   3797      6  0.405  0.604  0.000  0.000  0.000  0.000  0.000   1.86  31.16   0.38      0   3797     71.3   1.60   0.00   1.00    3.90    3.97    2.42    0.70    0.52    0.74      0      0      0       0      79 20.20
 2013 181    77    76   19.0      5   1.85   2715   3333   1275    911   6048   9937   2602   49.0  0.128   3889      6  0.829  0.886  0.000  0.000  0.000  0.000  0.000   1.85  32.79   0.39      0   3889     68.3   1.60   0.00   1.00    3.90    3.97    2.42    0.70    0.52    0.74      0      0      0       0      79 18.00
 2013 182    78    77   19.0      5   1.85   2715   3371   1445    926   6086  10145   2602   55.5  0.142   4059      6  0.000  0.000  0.000  0.000  0.000  0.000  0.000   1.79  35.59   0.40      0   4059     68.3   1.60   0.00   1.00    3.97    4.00    2.48    0.71    0.51    0.74      0      0      0       0      79 18.20
 2013 183    79    78   19.0      5   1.85   2715   3452   1614    961   6167  10395   2602   62.0  0.155   4228      6  0.000  0.000  0.000  0.000  0.000  0.000  0.000   1.72  38.17   0.41      0   4228     68.3   1.60   0.00   1.00    4.00    4.00    2.62    0.72    0.52    0.75      0      0      0       0      79 17.55
 2013 184    80    79   19.0      5   1.85   2715   3526   1783    994   6242  10638   2602   68.5  0.168   4397      6  0.000  0.000  0.000  0.000  0.000  0.000  0.000   1.65  40.55   0.41      0   4397     68.3   1.60   0.00   1.00    4.00    4.00    2.75    0.73    0.52    0.76      0      0      0       0      79 18.95
 2013 185    81    80   19.0      5   1.85   2715   3583   1952   1018   6298  10864   2602   75.0  0.180   4566      6  0.000  0.000  0.000  0.000  0.000  0.000  0.000   1.59  42.75   0.42      0   4566     68.3   1.60   0.00   1.00    4.00    4.00    2.84    0.73    0.52    0.77      0      0      0       0      79 18.90
 2013 186    82    81   19.0      5   1.85   2715   3583   2121   1036   6298  11033   2602   81.5  0.192   4735      6  0.000  0.000  0.000  0.000  0.000  0.000  0.000   1.54  44.80   0.43      0   4735     68.3   1.60   0.00   1.00    4.00    4.00    2.92    0.74    0.52    0.77      0      0      0       0      79 17.50
 2013 187    83    82   19.0      5   1.85   2715   3583   2276   1075   6298  11187   2602   87.4  0.203   4890      6  0.000  0.000  0.000  0.000  0.000  0.000  0.000   1.50  46.54   0.44      0   4890     68.3   1.60   0.00   1.00    4.00    4.00    3.11    0.75    0.52    0.78      0      0      0       0      79 19.70
 2013 188    84    83   19.0      5   1.85   2715   3583   2445   1110   6298  11356   2602   93.9  0.215   5059      6  0.000  0.000  0.000  0.000  0.000  0.000  0.000   1.45  48.33   0.45      0   5059     68.3   1.60   0.00   1.00    4.00    4.00    3.27    0.76    0.52    0.79      0      0      0       0      79 18.40
 2013 189    85    84   19.0      5   1.85   2715   3583   2612   1147   6298  11523   2602  100.4  0.227   5226      6  0.000  0.000  0.000  0.000  0.000  0.000  0.000   1.41  49.98   0.45      0   5226     68.3   1.60   0.00   1.00    4.00    4.00    3.44    0.77    0.52    0.80      0      0      0       0      79 19.10
 2013 190    86    85   19.0      5   1.85   2715   3583   2781   1172   6298  11693   2602  106.9  0.238   5395      6  0.000  0.000  0.000  0.000  0.000  0.000  0.000   1.36  51.55   0.46      0   5395     68.3   1.60   0.00   1.00    4.00    4.00    3.56    0.77    0.52    0.81      0      0      0       0      79 18.65
 2013 191    87    86   19.0      5   1.85   2715   3583   2950   1177   6298  11862   2602  113.4  0.249   5564      6  0.000  0.000  0.000  0.000  0.000  0.000  0.000   1.32  53.02   0.47      0   5564     68.3   1.60   0.00   1.00    4.00    4.00    3.59    0.77    0.52    0.81      0      0      0       0      79 17.65
 2013 192    88    87   19.0      5   1.85   2715   3583   3119   1204   6298  12031   2602  119.9  0.259   5733      6  0.000  0.040  0.000  0.000  0.000  0.000  0.000   1.27  54.41   0.48      0   5733     68.3   1.60   0.00   1.00    3.98    4.00    3.74    0.78    0.52    0.82      0      0      0       0      79 18.50
 2013 193    89    88   19.0      5   1.84   2715   3583   3270   1223   6298  12182   2602  125.7  0.268   5884      6  0.163  0.442  0.000  0.000  0.000  0.000  0.000   1.17  55.58   0.48      0   5884     67.7   1.60   0.00   1.00    3.96    4.00    3.85    0.79    0.52    0.82      0      0      0       0      85 19.15
 2013 194    90    89   19.0      5   1.80   2715   3583   3393   1228   6298  12304   2602  130.4  0.276   6007      6  0.445  0.630  0.000  0.000  0.000  0.000  0.000   1.15  56.48   0.49      0   6007     66.2   1.60   0.00   1.00    3.94    4.00    3.89    0.79    0.52    0.82      0      0      0       0      91 19.35
 2013 195    91    90   19.0      5   1.74   2715   3583   3485   1230   6298  12396   2602  133.9  0.281   6099      6  0.627  0.752  0.000  0.000  0.000  0.000  0.000   1.13  57.14   0.49      0   6099     64.2   1.60   0.00   1.00    3.92    4.00    3.93    0.79    0.52    0.82      0      0      0       0      97 20.33
 2013 196    92    91   19.0      5   1.70   2715   3562   3611   1223   6277  12502   2602  138.7  0.289   6224      6  0.466  0.644  0.000  0.000  0.000  0.000  0.000   1.10  58.01   0.50      0   6224     62.7   1.60   0.00   1.00    3.92    4.00    3.93    0.79    0.52    0.82      0      0      0       0      97 18.95
 2013 197    93    92   19.0      5   1.65   2715   3543   3719   1217   6258  12591   2602  142.9  0.295   6333      6  0.626  0.751  0.000  0.000  0.000  0.000  0.000   1.08  58.73   0.50      0   6333     60.7   1.60   0.00   1.00    3.92    4.00    3.93    0.79    0.52    0.82      0      0      0       0     103 19.15
 2013 198    94    93   19.0      5   1.59   2715   3534   3806   1211   6249  12668   2602  146.2  0.300   6420      6  0.750  0.834  0.000  0.000  0.000  0.000  0.000   1.07  59.28   0.51      0   6420     58.4   1.60   0.00   1.00    3.92    4.00    3.93    0.79    0.52    0.82      0      0      0       0     109 19.99
 2013 199    95    94   19.0      5   1.53   2715   3500   3909   1205   6215  12738   2602  150.2  0.307   6523      6  0.702  0.802  0.000  0.000  0.000  0.000  0.000   1.04  59.93   0.51      0   6523     56.4   1.60   0.00   1.00    3.92    4.00    3.93    0.79    0.52    0.82      0      0      0       0     109 18.70
 2013 200    96    95   19.0      5   1.49   2715   3441   4033   1199   6156  12803   2602  155.0  0.315   6647      6  0.493  0.662  0.000  0.000  0.000  0.000  0.000   1.02  60.67   0.52      0   6647     55.0   1.60   0.00   1.00    3.92    4.00    3.93    0.79    0.52    0.82      0      0      0       0     109 18.00
 2013 201    97    96   19.0      5   1.49   2715   3441   4033   1199   6156  12803   2602  155.0  0.315   6647      6  0.721  0.815  0.000  0.000  0.000  0.000  0.000   1.02  60.67   0.52      0   6647     55.0   1.60   0.00   1.00    3.92    4.00    3.93    0.79    0.52    0.82      0      0      0       0     109 19.25
 2013 202    98    97   19.0      5   1.49   2715   3441   4033   1199   6156  12803   2602  155.0  0.315   6647      6  0.841  0.895  0.000  0.000  0.000  0.000  0.000   1.02  60.67   0.52      0   6647     55.0   1.60   0.00   1.00    3.92    4.00    3.93    0.79    0.52    0.82      0      0      0       0     109 20.49
 2013 203    99    98   19.0      5   1.49   2715   3441   4033   1199   6156  12803   2602  155.0  0.315   6647      6  0.891  0.928  0.000  0.000  0.000  0.000  0.000   1.02  60.67   0.52      0   6647     55.0   1.60   0.00   1.00    3.92    4.00    3.93    0.79    0.52    0.82      0      0      0       0     109 20.67
 2013 204   100    99   19.0      5   1.49   2715   3441   4033   1199   6156  12803   2602  155.0  0.315   6647      6  0.000  0.928  0.000  0.000  0.000  0.000  0.000   1.02  60.67   0.52      0   6647     55.0   1.60   0.00   1.00    3.92    4.00    3.93    0.79    0.52    0.82      0      0      0       0     109  0.00
 2013 205   101   100   19.0      5   1.49   2715   3441   4033   1199   6156  12803   2602  155.0  0.315   6647      6  0.000  0.928  0.000  0.000  0.000  0.000  0.000   1.02  60.67   0.52      0   6647     55.0   1.60   0.00   1.00    3.92    4.00    3.93    0.79    0.52    0.82      0      0      0       0     109 19.77

*DSSAT Cropping System Model Ver. 4.6.1.000 -release      AUG 23, 2017; 14:09:36
                                                                                
*RUN   2        : P2                        MZCER046 3\000003    2              
 MODEL          : MZCER046 - Maize                                              
 EXPERIMENT     : 3\000003 BN Calibracion Cerete 2013                           
 DATA PATH      : C:\L\0\00000                                                  
 TREATMENT  2   : P2                        MZCER046                            
  
!                                                                                                                                                                                                                                      Root Dens. (cm/cm3) by soil depth (cm):
!                                                                                                                                                                                                                                      0-5    5-15   15-30   30-53   53-77  77-100
@YEAR DOY   DAS   DAP   L#SD   GSTD   LAID   LWAD   SWAD   GWAD   RWAD   VWAD   CWAD   G#AD   GWGD   HIAD   PWAD   P#AD   WSPD   WSGD   NSTD   EWSD  PST1A  PST2A   KSTD   LN%D   SH%D   HIPD   PWDD   PWTD     SLAD   CHTD   CWID   RDPD    RL1D    RL2D    RL3D    RL4D    RL5D    RL6D   CDAD   LDAD   SDAD   SNW0C   SNW1C  DTTD
 2013 119    15     0    0.0      0   0.00      0      0      0      0      0      0      0    0.0  0.000      0      0  0.000  0.000  0.000  0.000  0.000  0.000  0.000   0.00   0.00   0.00      0      0      0.0   0.00   0.00   0.05    0.00    0.00    0.00    0.00    0.00    0.00      0      0      0       0       0 18.72
 2013 120    16     1    0.0      0   0.00      0      0      0      0      0      0      0    0.0  0.000      0      0  0.000  0.000  0.000  0.000  0.000  0.000  0.000   0.00   0.00   0.00      0      0      0.0   0.00   0.00   0.08    0.00    0.00    0.00    0.00    0.00    0.00      0      0      0       0       0 21.05
 2013 121    17     2    0.0      0   0.00      0      0      0      0      0      0      0    0.0  0.000      0      0  0.000  0.000  0.000  0.000  0.000  0.000  0.000   0.00   0.00   0.00      0      0      0.0   0.00   0.00   0.11    0.00    0.00    0.00    0.00    0.00    0.00      0      0      0       0       0 18.42
 2013 122    18     3    0.0      0   0.00      0      0      0      0      0      0      0    0.0  0.000      0      0  0.000  0.000  0.000  0.000  0.000  0.000  0.000   0.00   0.00   0.00      0      0      0.0   0.00   0.00   0.14    0.00    0.00    0.00    0.00    0.00    0.00      0      0      0       0       0 21.54
 2013 123    19     4    0.0      0   0.00      0      0      0      0      0      0      0    0.0  0.000      0      0  0.000  0.000  0.000  0.000  0.000  0.000  0.000   0.00   0.00   0.00      0      0      0.0   0.00   0.00   0.17    0.00    0.00    0.00    0.00    0.00    0.00      0      0      0       0       0 17.34
 2013 124    20     5    2.0      1   0.00     12     12      0     12     25     25      0    0.0  0.000      0      0  0.000  0.000  0.012  0.000  0.000  0.000  0.000   4.40   0.00   0.00      0      0     31.8   0.00   0.00   0.19    0.25    0.12    0.01    0.00    0.00    0.00      0      0      0       0       0 20.68
 2013 125    21     6    2.0      1   0.01     12     12      0     13     25     25      0    0.0  0.000      0      0  0.000  0.000  0.010  0.000  0.000  0.000  0.000   4.40   0.00   0.00      0      0     58.2   0.00   0.00   0.21    0.25    0.13    0.01    0.00    0.00    0.00      0      0      0       0       0 17.55
 2013 126    22     7    3.0      1   0.01     12     12      0     13     25     25      0    0.0  0.000      0      0  0.000  0.000  0.000  0.000  0.000  0.000  0.000   4.40   0.00   0.00      0      0     92.9   0.01   0.00   0.23    0.25    0.13    0.01    0.00    0.00    0.00      0      0      0       0       0 20.01
 2013 127    23     8    3.0      1   0.02     12     12      0     14     25     25      0    0.0  0.000      0      0  0.000  0.000  0.000  0.000  0.000  0.000  0.000   4.40   0.00   0.00      0      0    122.3   0.01   0.00   0.24    0.26    0.14    0.01    0.00    0.00    0.00      0      0      0       0       0 15.70
 2013 128    24     9    4.0      1   0.03     12     12      0     16     25     25      0    0.0  0.000      0      0  0.000  0.000  0.000  0.000  0.000  0.000  0.000   4.40   0.00   0.00      0      0    243.3   0.02   0.00   0.26    0.27    0.15    0.02    0.00    0.00    0.00      0      0      0       0       0 19.24
 2013 129    25    10    4.0      1   0.05     14     12      0     17     26     26      0    0.0  0.000      0      0  0.000  0.000  0.000  0.000  0.000  0.000  0.000   4.12   0.00   0.00      0      0    334.5   0.03   0.00   0.28    0.29    0.16    0.03    0.00    0.00    0.00      0      0      0       0       0 18.75
 2013 130    26    11    5.0      1   0.07     23     12      0     19     35     35      0    0.0  0.000      0      0  0.000  0.000  0.000  0.000  0.000  0.000  0.000   3.11   0.00   0.00      0      0    303.7   0.04   0.00   0.30    0.30    0.17    0.04    0.00    0.00    0.00      0      0      0       0       0 20.19
 2013 131    27    12    5.0      1   0.09     33     12      0     21     46     46      0    0.0  0.000      0      0  0.000  0.000  0.000  0.000  0.000  0.000  0.000   3.08   0.00   0.00      0      0    280.5   0.05   0.00   0.32    0.31    0.18    0.05    0.00    0.00    0.00      0      0      0       0       0 20.27
 2013 132    28    13    5.0      1   0.12     47     12      0     25     59     59      0    0.0  0.000      0      0  0.000  0.000  0.000  0.000  0.000  0.000  0.000   3.06   0.00   0.00      0      0    261.9   0.07   0.00   0.33    0.33    0.20    0.09    0.00    0.00    0.00      0      0      0       0       0 20.59
 2013 133    29    14    6.0      2   0.16     59     12      0     30     71     71      0    0.0  0.000      0      0  0.000  0.000  0.000  0.000  0.000  0.000  0.000   3.22   0.00   0.00      0      0    266.9   0.08   0.00   0.34    0.35    0.23    0.12    0.00    0.00    0.00      0      0      0       0       0 19.18
 2013 134    30    15    6.0      2   0.20     79     12      0     37     91     91      0    0.0  0.000      0      0  0.000  0.000  0.003  0.000  0.000  0.000  0.000   3.03   0.00   0.00      0      0    251.1   0.11   0.00   0.35    0.38    0.27    0.17    0.00    0.00    0.00      0      0      0       0       0 20.63
 2013 135    31    16    7.0      2   0.24    100     12      0     41    112    112      0    0.0  0.000      0      0  0.000  0.000  0.000  0.000  0.000  0.000  0.000   3.14   0.00   0.00      0      0    239.3   0.13   0.00   0.37    0.39    0.29    0.20    0.00    0.00    0.00      0      0      0       0       1 17.81
 2013 136    32    17    7.0      2   0.29    128     12      0     53    140    140      0    0.0  0.000      0      0  0.000  0.000  0.000  0.000  0.000  0.000  0.000   3.04   0.00   0.00      0      0    227.4   0.16   0.00   0.39    0.43    0.34    0.29    0.01    0.00    0.00      0      0      0       0       1 20.47
 2013 137    33    18    7.0      2   0.33    149     12      0     56    161    161      0    0.0  0.000      0      0  0.000  0.000  0.000  0.000  0.000  0.000  0.000   3.78   0.00   0.00      0      0    220.1   0.18   0.00   0.41    0.43    0.35    0.32    0.02    0.00    0.00      0      0      0       0       1 17.19
 2013 138    34    19    8.0      2   0.39    185     12      0     83    198    198      0    0.0  0.000      0      0  0.000  0.000  0.000  0.000  0.000  0.000  0.000   3.73   0.00   0.00      0      0    210.3   0.21   0.00   0.43    0.50    0.45    0.51    0.06    0.00    0.00      0      0      0       0       1 20.20
 2013 139    35    20    8.0      2   0.45    221     12      0     90    234    234      0    0.0  0.000      0      0  0.000  0.000  0.000  0.000  0.000  0.000  0.000   3.69   0.00   0.00      0      0    202.6   0.24   0.00   0.45    0.52    0.48    0.56    0.07    0.00    0.00      0      0      0       0       2 17.62
 2013 140    36    21    9.0      3   0.52    266     13      0    125    278    278      0    0.0  0.000      0      0  0.000  0.000  0.000  0.000  0.000  0.000  0.000   3.61   0.00   0.00      0      0    194.6   0.28   0.00   0.47    0.67    0.59    0.78    0.14    0.00    0.00      0      0      0       0       2 19.27
 2013 141    37    22    9.0      3   0.59    311     13      0    138    324    324      0    0.0  0.000      0      0  0.000  0.000  0.000  0.000  0.000  0.000  0.000   3.54   0.00   0.00      0      0    189.2   0.32   0.00   0.49    0.69    0.63    0.87    0.18    0.00    0.00      0      0      0       0       3 17.57
 2013 142    38    23    9.0      3   0.68    368     15      0    165    383    383      0    0.0  0.000      0      0  0.000  0.000  0.000  0.000  0.000  0.000  0.000   3.48   0.00   0.00      0      0    183.4   0.36   0.00   0.51    0.72    0.70    1.04    0.26    0.00    0.00      0      0      0       0       4 19.69
 2013 143    39    24   10.0      3   0.76    422     17      0    191    439    439      0    0.0  0.000      0      0  0.000  0.000  0.000  0.000  0.000  0.000  0.000   3.44   0.00   0.00      0      0    178.8   0.41   0.00   0.53    0.73    0.71    1.18    0.38    0.00    0.00      0      0      0       0       4 16.89
 2013 144    40    25   10.0      3   0.85    488     21      0    216    509    509      0    0.0  0.000      0      0  0.000  0.000  0.000  0.000  0.000  0.000  0.000   3.38   0.00   0.00      0      0    174.1   0.46   0.00   0.54    1.38    0.71    1.20    0.43    0.00    0.00      0      0      0       0       5 18.36
 2013 145    41    26   11.0      3   0.96    566     29      0    262    595    595      0    0.0  0.000      0      0  0.000  0.000  0.000  0.000  0.000  0.000  0.000   3.33   0.00   0.00      0      0    169.3   0.52   0.00   0.57    2.66    0.72    1.22    0.51    0.02    0.00      0      0      0       0       6 19.75
 2013 146    42    27   11.0      3   1.06    638     39      0    284    677    677      0    0.0  0.000      0      0  0.000  0.000  0.000  0.000  0.000  0.000  0.000   3.28   0.00   0.00      0      0    165.4   0.57   0.00   0.58    3.07    0.85    1.23    0.54    0.03    0.00      0      0      0       0       8 16.75
 2013 147    43    28   11.0      3   1.18    730     55      0    327    785    785      0    0.0  0.000      0      0  0.000  0.000  0.000  0.000  0.000  0.000  0.000   3.23   0.00   0.00      0      0    161.3   0.63   0.00   0.60    3.70    1.20    1.27    0.56    0.05    0.00      0      0      0       0       9 19.20
 2013 148    44    29   12.0      3   1.32    844     81      0    348    924    924      0    0.0  0.000      0      0  0.000  0.000  0.000  0.000  0.000  0.000  0.000   3.18   0.00   0.00      0      0    156.8   0.71   0.00   0.62    3.91    1.38    1.33    0.57    0.05    0.00      0      0      0       0      11 19.15
 2013 149    45    30   12.0      3   1.46    954    111      0    396   1065   1065      0    0.0  0.000      0      0  0.000  0.000  0.000  0.000  0.000  0.000  0.000   3.13   0.00   0.00      0      0    153.2   0.79   0.00   0.64    4.00    1.75    1.48    0.60    0.07    0.00      0      0      0       0      13 18.00
 2013 150    46    31   12.0      3   1.60   1069    149      0    421   1218   1218      0    0.0  0.000      0      0  0.000  0.000  0.000  0.000  0.000  0.000  0.000   3.08   0.00   0.00      0      0    149.9   0.86   0.00   0.66    4.00    1.95    1.57    0.61    0.08    0.00      0      0      0       0      15 18.30
 2013 151    47    32   13.0      3   1.74   1188    197      0    452   1385   1385      0    0.0  0.000      0      0  0.000  0.000  0.000  0.000  0.000  0.000  0.000   3.03   0.00   0.00      0      0    146.8   0.94   0.00   0.68    4.00    2.18    1.66    0.62    0.10    0.00      0      0      0       0      17 18.60
 2013 152    48    33   13.0      3   1.89   1311    254      0    504   1565   1565      0    0.0  0.000      0      0  0.000  0.000  0.000  0.000  0.000  0.000  0.000   2.98   0.00   0.00      0      0    144.0   1.02   0.00   0.70    4.00    2.58    1.83    0.65    0.13    0.00      0      0      0       0      19 18.75
 2013 153    49    34   14.0      3   2.03   1433    320      0    560   1753   1753      0    0.0  0.000      0      0  0.000  0.000  0.000  0.000  0.000  0.000  0.000   2.94   0.00   0.00      0      0    141.6   1.09   0.00   0.72    4.00    3.01    1.99    0.68    0.17    0.00      0      0      0       0      21 18.20
 2013 154    50    35   14.0      3   2.17   1556    396      0    583   1952   1952      0    0.0  0.000      0      0  0.000  0.000  0.000  0.000  0.000  0.000  0.000   2.89   0.00   0.00      0      0    139.3   1.17   0.00   0.74    4.00    3.18    2.05    0.69    0.19    0.00      0      0      0       0      24 18.05
 2013 155    51    36   14.0      3   2.31   1682    485      0    623   2167   2167      0    0.0  0.000      0      0  0.000  0.000  0.000  0.000  0.000  0.000  0.000   2.85   0.00   0.00      0      0    137.2   1.24   0.00   0.76    4.00    3.48    2.15    0.71    0.23    0.00      0      0      0       0      27 18.30
 2013 156    52    37   15.0      3   2.48   1838    646      0    638   2484   2484      0    0.0  0.000      0      0  0.000  0.000  0.000  0.000  0.000  0.000  0.000   2.81   0.00   0.00      0      0    134.9   1.34   0.00   0.78    4.00    3.59    2.17    0.71    0.24    0.00      0      0      0       0      30 18.50
 2013 157    53    38   15.0      3   2.58   1936    789      0    648   2724   2724      0    0.0  0.000      0      0  0.000  0.000  0.000  0.000  0.000  0.000  0.000   2.75   0.00   0.00      0      0    133.5   1.39   0.00   0.80    4.00    3.68    2.18    0.72    0.26    0.00      0      0      0       0      33 17.90
 2013 158    54    39   16.0      3   2.70   2045    979      0    662   3023   3028      0    0.0  0.000      4      0  0.000  0.000  0.000  0.000  0.000  0.000  0.000   2.59   0.00   0.00      0      4    132.1   1.45   0.00   0.81    3.98    3.80    2.17    0.74    0.30    0.02      0      0      0       0      37 18.05
 2013 159    55    40   16.0      3   2.80   2137   1159      0    694   3296   3308      0    0.0  0.000     12      0  0.000  0.137  0.000  0.000  0.000  0.000  0.000   2.45   0.00   0.00      0     12    130.9   1.51   0.00   0.83    3.96    4.00    2.18    0.78    0.38    0.08      0      0      0       0      40 17.95
 2013 160    56    41   16.0      3   2.89   2221   1339      0    733   3560   3583      0    0.0  0.000     23      0  0.000  0.172  0.000  0.000  0.000  0.000  0.000   2.33   0.00   0.01      0     23    129.9   1.55   0.00   0.85    3.94    4.00    2.20    0.82    0.47    0.20      0      0      0       0      43 19.00
 2013 161    57    42   17.0      3   2.95   2291   1504      0    743   3795   3827      0    0.0  0.000     32      0  0.000  0.009  0.015  0.000  0.000  0.000  0.000   2.26   0.00   0.01      0     32    128.9   1.59   0.00   0.87    3.92    4.00    2.21    0.82    0.50    0.25      0      0      0       0      47 18.50
 2013 162    58    43   17.0      3   3.01   2360   1669      0    753   4029   4078      0    0.0  0.000     49      0  0.000  0.160  0.030  0.000  0.000  0.000  0.000   2.18   0.00   0.01      0     49    127.7   1.60   0.00   0.89    3.90    3.99    2.21    0.83    0.52    0.31      0      0      0       0      51 18.25
 2013 163    59    44   18.0      3   3.05   2412   1787      0    821   4199   4277      0    0.0  0.000     79      0  0.019  0.346  0.040  0.000  0.000  0.000  0.000   2.20   0.00   0.02      0     79    126.5   1.60   0.00   0.91    4.00    4.00    2.23    0.83    0.55    0.44      0      0      0       0      55 18.60
 2013 164    60    45   18.0      3   3.11   2484   1960      0    855   4444   4567      0    0.0  0.000    123      0  0.000  0.045  0.038  0.000  0.000  0.000  0.000   2.15   0.00   0.03      0    123    125.2   1.60   0.00   0.93    4.00    4.00    2.24    0.84    0.56    0.54      0      0      0       0      59 19.80
 2013 165    61    46   18.0      3   3.09   2517   2022      0    912   4539   4706      0    0.0  0.000    167      0  0.323  0.549  0.032  0.000  0.000  0.000  0.000   2.13   0.00   0.04      0    167    122.9   1.60   0.00   0.95    3.98    4.00    2.33    0.86    0.59    0.90      0      0      0       0      63 19.25
 2013 166    62    47   18.0      3   3.07   2550   2075      0    953   4625   4843      0    0.0  0.000    218      0  0.335  0.557  0.045  0.000  0.000  0.000  0.000   2.11   0.00   0.04      0    218    120.6   1.60   0.00   0.97    3.96    4.00    2.39    0.87    0.61    1.16      0      0      0       0      68 19.40
 2013 167    63    48   18.0      3   3.01   2573   2099      0    987   4672   4942      0    0.0  0.000    270      0  0.541  0.695  0.043  0.000  0.000  0.000  0.000   2.11   0.00   0.05      0    270    117.2   1.60   0.00   0.99    3.94    3.98    2.45    0.89    0.62    1.40      0      0      0       0      72 20.45
 2013 168    64    49   18.0      3   2.95   2595   2113      0   1008   4708   5032      0    0.0  0.000    324      0  0.587  0.725  0.041  0.000  0.000  0.000  0.000   2.10   0.00   0.06      0    324    113.6   1.60   0.00   1.00    3.92    3.96    2.48    0.90    0.63    1.55      0      0      0       0      77 20.40
 2013 169    65    50   18.0      3   2.87   2611   2140      0   1027   4751   5102      0    0.0  0.000    350      0  0.668  0.779  0.035  0.000  0.000  0.000  0.000   2.09   0.00   0.07      0    350    109.7   1.60   0.00   1.00    3.90    3.94    2.53    0.91    0.64    1.68      0      0      0       0      82 19.95
 2013 170    66    51   18.0      3   2.80   2630   2145      0   1035   4776   5182      0    0.0  0.000    406      0  0.616  0.744  0.029  0.000  0.000  0.000  0.000   2.09   0.00   0.08      0    406    106.3   1.60   0.00   1.00    3.88    3.92    2.54    0.91    0.65    1.74      0      0      0       0      87 19.65
 2013 171    67    52   18.0      4   2.69   2601   2220      0   1033   4821   5236      0    0.0  0.000    416      0  0.745  0.831  0.023  0.000  0.000  0.000  0.000   2.08   0.00   0.08      0    416    103.5   1.60   0.00   1.00    3.86    3.90    2.54    0.91    0.65    1.75      0      0      0       0      93 19.90
 2013 172    68    53   18.0      4   2.59   2569   2286      0   1031   4855   5278      0    0.0  0.000    423      0  0.786  0.858  0.012  0.000  0.000  0.000  0.000   2.07   0.00   0.08      0    423    100.6   1.60   0.00   1.00    3.84    3.88    2.54    0.90    0.64    1.76      0      0      0       0      98 19.25
 2013 173    69    54   18.0      4   2.49   2534   2343      0   1029   4878   5308      0    0.0  0.000    430      0  0.769  0.847  0.005  0.000  0.000  0.000  0.000   2.07   0.00   0.08      0    430     98.1   1.60   0.00   1.00    3.82    3.86    2.53    0.90    0.64    1.76      0      0      0       0     103 19.80
 2013 174    70    55   18.0      4   2.39   2497   2394      0   1026   4891   5329      0    0.0  0.000    438      0  0.767  0.845  0.000  0.000  0.000  0.000  0.000   2.07   0.00   0.08      0    438     95.8   1.60   0.00   1.00    3.80    3.84    2.53    0.90    0.64    1.77      0      0      0       0     108 20.05
 2013 175    71    56   18.0      4   2.29   2456   2442      0   1023   4898   5342      0    0.0  0.000    443      0  0.802  0.868  0.000  0.000  0.000  0.000  0.000   2.07   0.00   0.08      0    443     93.4   1.60   0.00   1.00    3.78    3.82    2.52    0.89    0.64    1.77      0      0      0       0     113 19.90
 2013 176    72    57   18.0      4   2.20   2413   2487      0   1020   4900   5347      0    0.0  0.000    447      0  0.857  0.905  0.000  0.000  0.000  0.000  0.000   2.07   0.00   0.08      0    447     91.0   1.60   0.00   1.00    3.76    3.80    2.52    0.89    0.64    1.76      0      0      0       0     118 20.00
 2013 177    73    58   18.0      4   2.10   2368   2527      0   1017   4894   5345      0    0.0  0.000    451      0  0.849  0.900  0.000  0.000  0.000  0.000  0.000   2.06   0.00   0.08      0    451     88.8   1.60   0.00   1.00    3.74    3.78    2.51    0.89    0.64    1.76      0      0      0       0     123 20.83
 2013 178    74    59   18.0      4   2.01   2319   2564      0   1014   4882   5337      0    0.0  0.000    455      0  0.848  0.899  0.000  0.000  0.000  0.000  0.000   2.06   0.00   0.09      0    455     86.9   1.60   0.00   1.00    3.72    3.76    2.50    0.89    0.64    1.76      0      0      0       0     123 21.43
 2013 179    75    60   18.0      5   1.93   2319   2564     23   1012   4882   5360    759    3.0  0.004    477      6  0.882  0.922  0.000  0.000  0.000  0.000  0.000   2.06   4.73   0.09      0    477     83.0   1.60   0.00   1.00    3.83    3.74    2.49    0.88    0.63    1.75      0      0      0       0     123 19.90
 2013 180    76    61   18.0      5   1.88   2319   2564     54   1042   4882   5391    759    7.1  0.010    508      6  0.468  0.646  0.000  0.000  0.000  0.000  0.000   2.04  10.57   0.09      0    508     81.1   1.60   0.00   1.00    3.81    3.72    2.47    0.94    0.69    1.92      0      0      0       0     123 20.20
 2013 181    77    62   18.0      5   1.80   2319   2564     81   1039   4882   5418    759   10.7  0.015    536      6  0.815  0.877  0.000  0.000  0.000  0.000  0.000   2.03  15.12   0.10      0    536     77.8   1.60   0.00   1.00    3.81    3.73    2.46    0.93    0.69    1.91      0      0      0       0     123 18.00
 2013 182    78    63   18.0      5   1.80   2319   2564    130   1082   4882   5467    759   17.2  0.024    585      6  0.000  0.000  0.000  0.000  0.000  0.000  0.000   2.02  22.28   0.11      0    585     77.8   1.60   0.00   1.00    4.00    4.00    2.56    0.93    0.69    1.90      0      0      0       0     123 18.20
 2013 183    79    64   18.0      5   1.80   2319   2564    180   1146   4882   5517    759   23.7  0.033    634      6  0.000  0.000  0.000  0.000  0.000  0.000  0.000   2.00  28.33   0.11      0    634     77.8   1.60   0.00   1.00    4.00    4.00    2.73    0.93    0.68    1.90      0      0      0       0     123 17.55
 2013 184    80    65   18.0      5   1.80   2319   2564    229   1206   4882   5566    759   30.2  0.041    684      6  0.000  0.000  0.000  0.000  0.000  0.000  0.000   1.98  33.50   0.12      0    684     77.8   1.60   0.00   1.00    4.00    4.00    2.89    0.93    0.68    1.89      0      0      0       0     123 18.95
 2013 185    81    66   18.0      5   1.80   2319   2564    278   1258   4882   5615    759   36.7  0.050    733      6  0.000  0.000  0.000  0.000  0.000  0.000  0.000   1.96  37.98   0.13      0    733     77.8   1.60   0.00   1.00    4.00    4.00    3.04    0.93    0.68    1.89      0      0      0       0     123 18.90
 2013 186    82    67   18.0      5   1.80   2319   2564    328   1304   4882   5665    759   43.2  0.058    782      6  0.000  0.000  0.000  0.000  0.000  0.000  0.000   1.95  41.89   0.14      0    782     77.8   1.60   0.00   1.00    4.00    4.00    3.22    0.93    0.68    1.88      0      0      0       0     123 17.50
 2013 187    83    68   18.0      5   1.80   2319   2564    373   1368   4882   5710    759   49.1  0.065    827      6  0.000  0.000  0.000  0.000  0.000  0.000  0.000   1.93  45.05   0.14      0    827     77.8   1.60   0.00   1.00    4.00    4.00    3.50    0.93    0.68    1.88      0      0      0       0     123 19.70
 2013 188    84    69   18.0      5   1.80   2319   2564    422   1430   4882   5759    759   55.6  0.073    877      6  0.000  0.000  0.000  0.000  0.000  0.000  0.000   1.91  48.15   0.15      0    877     77.8   1.60   0.00   1.00    4.00    4.00    3.77    0.93    0.67    1.87      0      0      0       0     123 18.40
 2013 189    85    70   18.0      5   1.80   2319   2564    471   1494   4882   5808    759   62.0  0.081    925      6  0.000  0.000  0.000  0.000  0.000  0.000  0.000   1.89  50.88   0.16      0    925     77.8   1.60   0.00   1.00    4.00    4.00    4.00    0.93    0.67    1.87      0      0      0       0     123 19.10
 2013 190    86    71   18.0      5   1.80   2319   2564    520   1546   4882   5857    759   68.5  0.089    975      6  0.000  0.000  0.000  0.000  0.000  0.000  0.000   1.88  53.36   0.17      0    975     77.8   1.60   0.00   1.00    4.00    4.00    4.00    0.93    0.67    1.87      0      0      0       0     123 18.65
 2013 191    87    72   18.0      5   1.80   2319   2564    570   1578   4882   5906    759   75.0  0.096   1024      6  0.000  0.000  0.000  0.000  0.000  0.000  0.000   1.86  55.61   0.17      0   1024     77.8   1.60   0.00   1.00    4.00    4.00    4.00    0.92    0.67    1.86      0      0      0       0     123 17.65
 2013 192    88    73   18.0      5   1.80   2319   2564    619   1632   4882   5956    759   81.5  0.104   1073      6  0.000  0.000  0.000  0.000  0.000  0.000  0.000   1.84  57.65   0.18      0   1073     77.8   1.60   0.00   1.00    3.98    4.00    4.00    0.93    0.67    1.86      0      0      0       0     123 18.50
 2013 193    89    74   18.0      5   1.79   2319   2564    664   1678   4882   6001    759   87.5  0.111   1119      6  0.117  0.412  0.000  0.000  0.000  0.000  0.000   1.83  59.37   0.19      0   1119     77.3   1.60   0.00   1.00    3.96    4.00    4.00    0.93    0.66    1.85      0      0      0       0     123 19.15
 2013 194    90    75   18.0      5   1.75   2319   2564    700   1701   4882   6037    759   92.2  0.116   1154      6  0.444  0.630  0.000  0.000  0.000  0.000  0.000   1.81  60.62   0.19      0   1154     75.6   1.60   0.00   1.00    3.94    4.00    4.00    0.93    0.66    1.85      0      0      0       0     123 19.35
 2013 195    91    76   18.0      5   1.70   2319   2564    727   1716   4882   6064    759   95.7  0.120   1181      6  0.631  0.754  0.000  0.000  0.000  0.000  0.000   1.80  61.52   0.19      0   1181     73.2   1.60   0.00   1.00    3.92    4.00    4.00    0.93    0.66    1.84      0      0      0       0     123 20.33
 2013 196    92    77   18.0      5   1.66   2319   2564    763   1724   4882   6100    759  100.5  0.125   1218      6  0.474  0.650  0.000  0.000  0.000  0.000  0.000   1.79  62.67   0.20      0   1218     71.5   1.60   0.00   1.00    3.90    4.00    4.00    0.93    0.65    1.84      0      0      0       0     123 18.95
 2013 197    93    78   18.0      5   1.61   2319   2564    795   1729   4882   6132    759  104.7  0.130   1249      6  0.633  0.756  0.000  0.000  0.000  0.000  0.000   1.78  63.61   0.20      0   1249     69.2   1.60   0.00   1.00    3.88    4.00    4.00    0.93    0.65    1.83      0      0      0       0     123 19.15
 2013 198    94    79   18.0      5   1.54   2319   2564    820   1733   4882   6157    759  108.0  0.133   1274      6  0.755  0.837  0.000  0.000  0.000  0.000  0.000   1.77  64.33   0.21      0   1274     66.6   1.60   0.00   1.00    3.86    4.00    4.00    0.93    0.65    1.83      0      0      0       0     123 19.99
 2013 199    95    80   18.0      5   1.49   2319   2564    850   1734   4882   6187    759  111.9  0.137   1304      6  0.708  0.806  0.000  0.000  0.000  0.000  0.000   1.76  65.15   0.21      0   1304     64.3   1.60   0.00   1.00    3.84    3.99    4.00    0.93    0.65    1.82      0      0      0       0     123 18.70
 2013 200    96    81   18.0      5   1.45   2319   2564    886   1732   4882   6223    759  116.6  0.142   1340      6  0.502  0.669  0.000  0.000  0.000  0.000  0.000   1.74  66.08   0.22      0   1340     62.7   1.60   0.00   1.00    3.82    3.97    4.00    0.93    0.65    1.82      0      0      0       0     123 18.00
 2013 201    97    82   18.0      5   1.40   2319   2564    914   1728   4882   6251    759  120.4  0.146   1369      6  0.728  0.819  0.000  0.000  0.000  0.000  0.000   1.73  66.79   0.22      0   1369     60.4   1.60   0.00   1.00    3.80    3.95    4.00    0.94    0.65    1.81      0      0      0       0     123 19.25
 2013 202    98    83   18.0      5   1.34   2319   2564    935   1725   4882   6272    759  123.1  0.149   1390      6  0.841  0.895  0.000  0.000  0.000  0.000  0.000   1.72  67.29   0.22      0   1390     57.8   1.60   0.00   1.00    3.78    3.93    3.98    0.97    0.65    1.80      0      0      0       0     123 20.49
 2013 203    99    84   18.0      5   1.28   2319   2564    954   1717   4882   6291    759  125.6  0.152   1408      6  0.910  0.941  0.000  0.000  0.000  0.000  0.000   1.72  67.72   0.22      0   1408     55.2   1.60   0.00   1.00    3.76    3.91    3.96    0.98    0.65    1.79      0      0      0       0     123 20.67
 2013 204   100    85   18.0      5   1.22   2319   2563    979   1709   4881   6315    759  129.0  0.155   1434      6  0.875  0.917  0.000  0.000  0.000  0.000  0.000   1.71  68.30   0.23      0   1434     52.8   1.60   0.00   1.00    3.76    3.91    3.96    0.98    0.65    1.79      0      0      0       0     123 17.70
 2013 205   101    86   18.0      5   1.22   2319   2564   1023   1750   4882   6360    759  134.8  0.161   1478      6  0.000  0.000  0.000  0.000  0.000  0.000  0.000   1.69  69.24   0.23      0   1478     52.8   1.60   0.00   1.00    4.00    4.00    3.94    0.98    0.65    1.78      0      0      0       0     123 19.77
 2013 206   102    87   18.0      5   1.20   2319   2564   1063   1767   4882   6400    759  140.1  0.166   1518      6  0.343  0.562  0.000  0.000  0.000  0.000  0.000   1.67  70.05   0.24      0   1518     51.9   1.60   0.00   1.00    4.00    4.00    3.92    0.98    0.64    1.77      0      0      0       0     123 18.70
 2013 207   103    88   18.0      5   1.16   2319   2564   1090   1766   4882   6427    759  143.5  0.170   1544      6  0.732  0.822  0.000  0.000  0.000  0.000  0.000   1.66  70.56   0.24      0   1544     50.0   1.60   0.00   1.00    3.98    4.00    3.90    0.98    0.64    1.76      0      0      0       0     123 19.85
 2013 208   104    89   18.0      5   1.11   2319   2564   1110   1761   4882   6447    759  146.2  0.172   1565      6  0.846  0.898  0.000  0.000  0.000  0.000  0.000   1.66  70.95   0.24      0   1565     47.9   1.60   0.00   1.00    3.96    4.00    3.88    0.98    0.64    1.75      0      0      0       0     123 20.47
 2013 209   105    90   18.0      5   1.06   2319   2564   1131   1755   4882   6468    759  149.0  0.175   1586      6  0.844  0.897  0.000  0.000  0.000  0.000  0.000   1.65  71.33   0.25      0   1586     45.8   1.60   0.00   1.00    3.94    4.00    3.86    0.97    0.64    1.75      0      0      0       0     123 20.67
 2013 210   106    91   18.0      5   1.02   2319   2564   1153   1747   4882   6490    759  151.9  0.178   1608      6  0.884  0.923  0.000  0.000  0.000  0.000  0.000   1.64  71.73   0.25      0   1608     43.8   1.60   0.00   1.00    3.92    4.00    3.84    0.97    0.63    1.74      0      0      0       0     123 19.69
 2013 211   107    92   18.0      5   0.97   2319   2564   1178   1738   4882   6515    759  155.1  0.181   1632      6  0.858  0.906  0.000  0.000  0.000  0.000  0.000   1.63  72.15   0.25      0   1632     41.9   1.60   0.00   1.00    3.90    3.98    3.82    0.96    0.63    1.73      0      0      0       0     123 19.50
 2013 212   108    93   18.0      5   0.93   2319   2564   1201   1730   4882   6537    759  158.1  0.184   1655      6  0.879  0.920  0.000  0.000  0.000  0.000  0.000   1.62  72.53   0.25      0   1655     40.1   1.60   0.00   1.00    3.90    3.98    3.82    0.96    0.63    1.73      0      0      0       0     123 19.81
 2013 213   109    94   18.0      5   0.89   2319   2562   1223   1721   4881   6558    759  161.0  0.186   1677      6  0.897  0.932  0.000  0.000  0.000  0.000  0.000   1.61  72.90   0.26      0   1677     38.3   1.60   0.00   1.00    3.90    3.98    3.82    0.96    0.63    1.73      0      0      0       0     123 19.78
 2013 214   110    95   18.0      5   0.89   2319   2562   1223   1721   4881   6558    759  161.0  0.186   1677      6  0.916  0.945  0.000  0.000  0.000  0.000  0.000   1.61  72.90   0.26      0   1677     38.3   1.60   0.00   1.00    3.90    3.98    3.82    0.96    0.63    1.73      0      0      0       0     123 21.30
 2013 215   111    96   18.0      5   0.89   2319   2562   1223   1721   4881   6558    759  161.0  0.186   1677      6  0.920  0.947  0.000  0.000  0.000  0.000  0.000   1.61  72.90   0.26      0   1677     38.3   1.60   0.00   1.00    3.90    3.98    3.82    0.96    0.63    1.73      0      0      0       0     123 21.36
 2013 216   112    97   18.0      5   0.89   2319   2562   1223   1721   4881   6558    759  161.0  0.186   1677      6  0.000  0.947  0.000  0.000  0.000  0.000  0.000   1.61  72.90   0.26      0   1677     38.3   1.60   0.00   1.00    3.90    3.98    3.82    0.96    0.63    1.73      0      0      0       0     123  0.00
 2013 217   113    98   18.0      5   0.89   2319   2562   1223   1721   4881   6558    759  161.0  0.186   1677      6  0.000  0.947  0.000  0.000  0.000  0.000  0.000   1.61  72.90   0.26      0   1677     38.3   1.60   0.00   1.00    3.90    3.98    3.82    0.96    0.63    1.73      0      0      0       0     123 19.27

*DSSAT Cropping System Model Ver. 4.6.1.000 -release      AUG 23, 2017; 14:09:36
                                                                                
*RUN   3        : P3                        MZCER046 3\000003    3              
 MODEL          : MZCER046 - Maize                                              
 EXPERIMENT     : 3\000003 BN Calibracion Cerete 2013                           
 DATA PATH      : C:\L\0\00000                                                  
 TREATMENT  3   : P3                        MZCER046                            
  
!                                                                                                                                                                                                                                      Root Dens. (cm/cm3) by soil depth (cm):
!                                                                                                                                                                                                                                      0-5    5-15   15-30   30-53   53-77  77-100
@YEAR DOY   DAS   DAP   L#SD   GSTD   LAID   LWAD   SWAD   GWAD   RWAD   VWAD   CWAD   G#AD   GWGD   HIAD   PWAD   P#AD   WSPD   WSGD   NSTD   EWSD  PST1A  PST2A   KSTD   LN%D   SH%D   HIPD   PWDD   PWTD     SLAD   CHTD   CWID   RDPD    RL1D    RL2D    RL3D    RL4D    RL5D    RL6D   CDAD   LDAD   SDAD   SNW0C   SNW1C  DTTD
 2013 133    29     0    0.0      0   0.00      0      0      0      0      0      0      0    0.0  0.000      0      0  0.000  0.000  0.000  0.000  0.000  0.000  0.000   0.00   0.00   0.00      0      0      0.0   0.00   0.00   0.05    0.00    0.00    0.00    0.00    0.00    0.00      0      0      0       0       0 19.18
 2013 134    30     1    0.0      0   0.00      0      0      0      0      0      0      0    0.0  0.000      0      0  0.000  0.000  0.000  0.000  0.000  0.000  0.000   0.00   0.00   0.00      0      0      0.0   0.00   0.00   0.08    0.00    0.00    0.00    0.00    0.00    0.00      0      0      0       0       0 20.63
 2013 135    31     2    0.0      0   0.00      0      0      0      0      0      0      0    0.0  0.000      0      0  0.000  0.000  0.000  0.000  0.000  0.000  0.000   0.00   0.00   0.00      0      0      0.0   0.00   0.00   0.11    0.00    0.00    0.00    0.00    0.00    0.00      0      0      0       0       0 17.81
 2013 136    32     3    0.0      0   0.00      0      0      0      0      0      0      0    0.0  0.000      0      0  0.000  0.000  0.000  0.000  0.000  0.000  0.000   0.00   0.00   0.00      0      0      0.0   0.00   0.00   0.14    0.00    0.00    0.00    0.00    0.00    0.00      0      0      0       0       0 20.47
 2013 137    33     4    0.0      0   0.00      0      0      0      0      0      0      0    0.0  0.000      0      0  0.000  0.000  0.000  0.000  0.000  0.000  0.000   0.00   0.00   0.00      0      0      0.0   0.00   0.00   0.16    0.00    0.00    0.00    0.00    0.00    0.00      0      0      0       0       0 17.19
 2013 138    34     5    2.0      1   0.00     12     12      0     12     25     25      0    0.0  0.000      0      0  0.000  0.000  0.012  0.000  0.000  0.000  0.000   4.40   0.00   0.00      0      0     31.0   0.00   0.00   0.18    0.25    0.12    0.01    0.00    0.00    0.00      0      0      0       0       0 20.20
 2013 139    35     6    2.0      1   0.01     12     12      0     13     25     25      0    0.0  0.000      0      0  0.000  0.000  0.012  0.000  0.000  0.000  0.000   4.40   0.00   0.00      0      0     57.4   0.00   0.00   0.20    0.25    0.13    0.01    0.00    0.00    0.00      0      0      0       0       0 17.62
 2013 140    36     7    3.0      1   0.01     12     12      0     14     25     25      0    0.0  0.000      0      0  0.000  0.000  0.002  0.000  0.000  0.000  0.000   4.40   0.00   0.00      0      0     90.5   0.01   0.00   0.22    0.26    0.13    0.01    0.00    0.00    0.00      0      0      0       0       0 19.27
 2013 141    37     8    3.0      1   0.02     12     12      0     14     25     25      0    0.0  0.000      0      0  0.000  0.000  0.000  0.000  0.000  0.000  0.000   4.40   0.00   0.00      0      0    123.7   0.01   0.00   0.24    0.27    0.14    0.01    0.00    0.00    0.00      0      0      0       0       0 17.57
 2013 142    38     9    4.0      1   0.03     12     12      0     16     25     25      0    0.0  0.000      0      0  0.000  0.000  0.000  0.000  0.000  0.000  0.000   4.40   0.00   0.00      0      0    249.0   0.02   0.00   0.26    0.29    0.16    0.02    0.00    0.00    0.00      0      0      0       0       0 19.69
 2013 143    39    10    4.0      1   0.05     14     12      0     19     26     26      0    0.0  0.000      0      0  0.000  0.000  0.000  0.000  0.000  0.000  0.000   4.19   0.00   0.00      0      0    336.7   0.02   0.00   0.28    0.30    0.17    0.03    0.00    0.00    0.00      0      0      0       0       0 16.89
 2013 144    40    11    4.0      1   0.07     21     12      0     20     34     34      0    0.0  0.000      0      0  0.000  0.000  0.000  0.000  0.000  0.000  0.000   3.25   0.00   0.00      0      0    307.9   0.04   0.00   0.29    0.31    0.18    0.04    0.00    0.00    0.00      0      0      0       0       0 18.36
 2013 145    41    12    5.0      1   0.09     31     12      0     23     44     44      0    0.0  0.000      0      0  0.000  0.000  0.000  0.000  0.000  0.000  0.000   3.11   0.00   0.00      0      0    284.3   0.05   0.00   0.31    0.34    0.20    0.06    0.00    0.00    0.00      0      0      0       0       0 19.75
 2013 146    42    13    5.0      1   0.11     42     12      0     25     54     54      0    0.0  0.000      0      0  0.000  0.000  0.000  0.000  0.000  0.000  0.000   3.22   0.00   0.00      0      0    268.1   0.06   0.00   0.32    0.35    0.21    0.08    0.00    0.00    0.00      0      0      0       0       0 17.10
 2013 147    43    14    6.0      1   0.14     56     12      0     31     69     69      0    0.0  0.000      0      0  0.000  0.000  0.000  0.000  0.000  0.000  0.000   3.08   0.00   0.00      0      0    252.2   0.08   0.00   0.33    0.38    0.25    0.12    0.00    0.00    0.00      0      0      0       0       0 20.00
 2013 148    44    15    6.0      2   0.18     70     12      0     39     82     82      0    0.0  0.000      0      0  0.000  0.000  0.000  0.000  0.000  0.000  0.000   3.19   0.00   0.00      0      0    257.4   0.10   0.00   0.34    0.42    0.29    0.17    0.00    0.00    0.00      0      0      0       0       0 19.86
 2013 149    45    16    7.0      2   0.22     90     12      0     51    103    103      0    0.0  0.000      0      0  0.000  0.000  0.009  0.000  0.000  0.000  0.000   3.13   0.00   0.00      0      0    244.2   0.12   0.00   0.36    0.48    0.35    0.25    0.01    0.00    0.00      0      0      0       0       1 18.85
 2013 150    46    17    7.0      2   0.27    114     12      0     60    127    127      0    0.0  0.000      0      0  0.000  0.000  0.000  0.000  0.000  0.000  0.000   3.11   0.00   0.00      0      0    232.6   0.14   0.00   0.38    0.54    0.40    0.31    0.01    0.00    0.00      0      0      0       0       1 18.75
 2013 151    47    18    7.0      2   0.32    143     12      0     73    155    155      0    0.0  0.000      0      0  0.000  0.000  0.000  0.000  0.000  0.000  0.000   3.10   0.00   0.00      0      0    222.0   0.17   0.00   0.40    0.64    0.46    0.39    0.02    0.00    0.00      0      0      0       0       1 19.15
 2013 152    48    19    8.0      2   0.38    177     12      0     94    189    189      0    0.0  0.000      0      0  0.000  0.000  0.000  0.000  0.000  0.000  0.000   3.78   0.00   0.00      0      0    212.4   0.20   0.00   0.42    0.76    0.57    0.52    0.04    0.00    0.00      0      0      0       0       2 19.55
 2013 153    49    20    8.0      2   0.44    215     12      0    120    227    227      0    0.0  0.000      0      0  0.000  0.000  0.000  0.000  0.000  0.000  0.000   3.74   0.00   0.00      0      0    204.0   0.24   0.00   0.44    0.93    0.70    0.67    0.07    0.00    0.00      0      0      0       0       2 19.15
 2013 154    50    21    9.0      2   0.50    257     12      0    138    269    269      0    0.0  0.000      0      0  0.000  0.000  0.000  0.000  0.000  0.000  0.000   3.69   0.00   0.00      0      0    196.5   0.27   0.00   0.46    1.07    0.78    0.77    0.09    0.00    0.00      0      0      0       0       3 18.58
 2013 155    51    22    9.0      3   0.58    305     13      0    168    318    318      0    0.0  0.000      0      0  0.000  0.000  0.000  0.000  0.000  0.000  0.000   3.61   0.00   0.00      0      0    189.1   0.31   0.00   0.48    1.29    0.91    0.92    0.14    0.00    0.00      0      0      0       0       3 19.19
 2013 156    52    23    9.0      3   0.66    361     13      0    209    374    374      0    0.0  0.000      0      0  0.000  0.000  0.000  0.000  0.000  0.000  0.000   3.54   0.00   0.00      0      0    183.5   0.36   0.00   0.50    1.59    1.08    1.12    0.22    0.00    0.00      0      0      0       0       4 19.49
 2013 157    53    24   10.0      3   0.75    419     15      0    235    434    434      0    0.0  0.000      0      0  0.000  0.000  0.000  0.000  0.000  0.000  0.000   3.48   0.00   0.00      0      0    178.5   0.40   0.00   0.52    1.79    1.17    1.24    0.28    0.00    0.00      0      0      0       0       5 18.50
 2013 158    54    25   10.0      3   0.84    486     18      0    277    504    504      0    0.0  0.000      0      0  0.000  0.000  0.000  0.000  0.000  0.000  0.000   3.43   0.00   0.00      0      0    173.7   0.45   0.00   0.54    2.04    1.30    1.41    0.41    0.00    0.00      0      0      0       0       6 18.91
 2013 159    55    26   11.0      3   0.95    560     23      0    324    584    584      0    0.0  0.000      0      0  0.000  0.000  0.000  0.000  0.000  0.000  0.000   3.38   0.00   0.00      0      0    169.2   0.51   0.00   0.56    2.03    1.41    1.59    0.62    0.03    0.00      0      0      0       0       8 18.94
 2013 160    56    27   11.0      3   1.06    642     32      0    374    674    674      0    0.0  0.000      0      0  0.000  0.000  0.000  0.000  0.000  0.000  0.000   3.30   0.00   0.00      0      0    164.9   0.57   0.00   0.58    2.02    1.45    1.62    0.92    0.11    0.00      0      0      0       0       9 19.00
 2013 161    57    28   11.0      3   1.18    730     44      0    401    775    775      0    0.0  0.000      0      0  0.000  0.000  0.000  0.000  0.000  0.000  0.000   3.24   0.00   0.00      0      0    160.9   0.63   0.00   0.60    2.01    1.47    1.64    1.07    0.18    0.00      0      0      0       0      11 18.50
 2013 162    58    29   12.0      3   1.32    839     64      0    423    903    903      0    0.0  0.000      0      0  0.000  0.000  0.000  0.000  0.000  0.000  0.000   3.05   0.00   0.00      0      0    156.7   0.71   0.00   0.62    2.00    1.48    1.66    1.17    0.24    0.00      0      0      0       0      13 18.25
 2013 163    59    30   12.0      3   1.46    953     91      0    469   1044   1044      0    0.0  0.000      0      0  0.000  0.000  0.000  0.000  0.000  0.000  0.000   3.18   0.00   0.00      0      0    153.0   0.79   0.00   0.64    3.33    1.49    1.66    1.22    0.28    0.00      0      0      0       0      15 18.60
 2013 164    60    31   12.0      3   1.61   1077    127      0    520   1204   1204      0    0.0  0.000      0      0  0.000  0.000  0.000  0.000  0.000  0.000  0.000   3.12   0.00   0.00      0      0    149.4   0.87   0.00   0.66    4.00    1.50    1.68    1.31    0.36    0.00      0      0      0       0      18 19.80
[...]
 2014 166    69    38   16.0      3   2.68   2026    916      0    524   2942   2946      0    0.0  0.000      4      0  0.000  0.000  0.000  0.000  0.000  0.000  0.000   2.73   0.00   0.00      0      4    132.3   1.44   0.00   0.81    3.69    2.81    2.35    0.61    0.26    0.00      0      0      0       0      29 19.80
 2014 167    70    39   16.0      3   2.79   2133   1120      0    539   3253   3264      0    0.0  0.000     11      0  0.000  0.000  0.000  0.000  0.000  0.000  0.000   2.69   0.00   0.00      0     11    131.0   1.51   0.00   0.83    3.77    2.89    2.40    0.62    0.28    0.01      0      0      0       0      32 17.85
 2014 168    71    40   16.0      3   2.88   2211   1285      0    551   3497   3514      0    0.0  0.000     17      0  0.000  0.000  0.000  0.000  0.000  0.000  0.000   2.65   0.00   0.00      0     17    130.0   1.55   0.00   0.85    3.79    2.95    2.43    0.64    0.29    0.02      0      0      0       0      35 17.85
 2014 169    72    41   17.0      3   2.96   2292   1470      0    563   3762   3790      0    0.0  0.000     29      0  0.000  0.000  0.000  0.000  0.000  0.000  0.000   2.61   0.00   0.01      0     29    129.1   1.59   0.00   0.87    3.80    3.02    2.48    0.65    0.31    0.03      0      0      0       0      38 17.60
 2014 170    73    42   17.0      3   3.04   2372   1655      0    588   4027   4074      0    0.0  0.000     47      0  0.000  0.000  0.000  0.000  0.000  0.000  0.000   2.58   0.00   0.01      0     47    128.3   1.60   0.00   0.88    3.83    3.13    2.58    0.68    0.35    0.05      0      0      0       0      40 16.85
 2014 171    74    43   17.0      3   3.12   2447   1839      0    601   4286   4356      0    0.0  0.000     70      0  0.000  0.000  0.000  0.000  0.000  0.000  0.000   2.55   0.00   0.02      0     70    127.5   1.60   0.00   0.90    3.84    3.18    2.62    0.70    0.37    0.07      0      0      0       0      43 17.60
 2014 172    75    44   18.0      3   3.19   2513   2007      0    612   4521   4616      0    0.0  0.000     96      0  0.000  0.000  0.000  0.000  0.000  0.000  0.000   2.51   0.00   0.02      0     96    126.8   1.60   0.00   0.92    3.84    3.21    2.65    0.71    0.39    0.09      0      0      0       0      46 19.40
 2014 173    76    45   18.0      3   3.26   2586   2186      0    626   4772   4914      0    0.0  0.000    142      0  0.000  0.000  0.000  0.000  0.000  0.000  0.000   2.47   0.00   0.03      0    142    126.1   1.60   0.00   0.94    4.00    3.24    2.66    0.73    0.41    0.11      0      0      0       0      49 20.01
 2014 174    77    46   19.0      3   3.31   2639   2320      0    635   4959   5137      0    0.0  0.000    179      0  0.000  0.000  0.000  0.000  0.000  0.000  0.000   2.43   0.00   0.03      0    179    125.6   1.60   0.00   0.96    4.00    3.25    2.67    0.74    0.43    0.13      0      0      0       0      52 19.05
 2014 175    78    47   19.0      3   3.39   2711   2452      0    665   5163   5439      0    0.0  0.000    276      0  0.000  0.000  0.000  0.000  0.000  0.000  0.000   2.42   0.00   0.05      0    276    124.9   1.60   0.00   0.98    4.00    3.38    2.73    0.76    0.46    0.17      0      0      0       0      56 18.95
 2014 176    79    48   19.0      3   3.46   2779   2566      0    677   5344   5726      0    0.0  0.000    381      0  0.000  0.000  0.000  0.000  0.000  0.000  0.000   2.38   0.00   0.07      0    381    124.3   1.60   0.00   1.00    4.00    3.45    2.75    0.77    0.47    0.19      0      0      0       0      59 18.15
 2014 177    80    49   19.0      3   3.53   2850   2651      0    698   5501   6023      0    0.0  0.000    522      0  0.000  0.000  0.000  0.000  0.000  0.000  0.000   2.36   0.00   0.09      0    522    123.7   1.60   0.00   1.00    4.00    3.58    2.79    0.79    0.48    0.21      0      0      0       0      62 18.65
 2014 178    81    50   19.0      3   3.60   2920   2710      0    717   5630   6314      0    0.0  0.000    684      0  0.000  0.000  0.000  0.000  0.000  0.000  0.000   2.33   0.00   0.11      0    684    123.1   1.60   0.00   1.00    4.00    3.70    2.82    0.80    0.50    0.24      0      0      0       0      66 18.20
 2014 179    82    51   19.0      3   3.67   2993   2735      0    747   5728   6617      0    0.0  0.000    889      0  0.000  0.000  0.000  0.000  0.000  0.000  0.000   2.31   0.00   0.13      0    889    122.5   1.60   0.00   1.00    4.00    3.90    2.88    0.82    0.52    0.27      0      0      0       0      69 18.95
 2014 180    83    52   19.0      4   3.48   2959   2841      0    757   5800   6900      0    0.0  0.000   1100      0  0.000  0.000  0.000  0.000  0.000  0.000  0.000   2.29   0.00   0.16      0   1100    117.6   1.60   0.00   1.00    4.00    3.97    2.90    0.82    0.53    0.29      0      0      0       0      73 19.05
 2014 181    84    53   19.0      4   3.47   2924   2907      0    764   5831   7099      0    0.0  0.000   1268      0  0.000  0.000  0.000  0.000  0.000  0.000  0.000   2.27   0.00   0.18      0   1268    118.5   1.60   0.00   1.00    4.00    4.00    2.92    0.82    0.53    0.29      0      0      0       0      73 16.90
 2014 182    85    54   19.0      4   3.45   2885   2966      0    770   5851   7302      0    0.0  0.000   1451      0  0.000  0.000  0.000  0.000  0.000  0.000  0.000   2.27   0.00   0.20      0   1451    119.6   1.60   0.00   1.00    4.00    4.00    2.95    0.83    0.54    0.30      0      0      0       0      73 17.80
 2014 183    86    55   19.0      4   3.43   2844   3034      0    781   5877   7589      0    0.0  0.000   1712      0  0.000  0.000  0.000  0.000  0.000  0.000  0.000   2.26   0.00   0.23      0   1712    120.7   1.60   0.00   1.00    4.00    4.00    2.99    0.83    0.54    0.31      0      0      0       0      73 18.50
 2014 184    87    56   19.0      4   3.41   2799   3089      0    790   5888   7848      0    0.0  0.000   1960      0  0.000  0.000  0.000  0.000  0.000  0.000  0.000   2.25   0.00   0.25      0   1960    122.0   1.60   0.00   1.00    4.00    4.00    3.03    0.83    0.55    0.32      0      0      0       0      73 18.80
 2014 185    88    57   19.0      4   3.40   2752   3138      0    799   5890   8102      0    0.0  0.000   2212      0  0.000  0.000  0.000  0.000  0.000  0.000  0.000   2.25   0.00   0.27      0   2212    123.4   1.60   0.00   1.00    4.00    4.00    3.07    0.84    0.55    0.33      0      0      0       0      73 19.40
 2014 186    89    58   19.0      4   3.38   2702   3196      0    812   5898   8444      0    0.0  0.000   2546      0  0.000  0.000  0.000  0.000  0.000  0.000  0.000   2.25   0.00   0.30      0   2546    125.0   1.60   0.00   1.00    4.00    4.00    3.12    0.84    0.56    0.35      0      0      0       0      73 20.04
 2014 187    90    59   19.0      4   3.36   2648   3242      0    823   5891   8722      0    0.0  0.000   2831      0  0.000  0.000  0.000  0.000  0.000  0.000  0.000   2.25   0.00   0.32      0   2831    126.9   1.60   0.00   1.00    4.00    4.00    3.17    0.85    0.57    0.36      0      0      0       0      73 20.50
 2014 188    91    60   19.0      4   3.34   2592   3276      0    830   5868   8919      0    0.0  0.000   3051      0  0.000  0.000  0.000  0.000  0.000  0.000  0.000   2.26   0.00   0.34      0   3051    128.9   1.60   0.00   1.00    4.00    4.00    3.21    0.85    0.57    0.37      0      0      0       0      73 19.85
 2014 189    92    61   19.0      5   3.29   2592   3276    170    842   5868   9089   2622    6.5  0.019   3222      6  0.000  0.000  0.000  0.000  0.000  0.000  0.000   2.21   5.29   0.35      0   3222    127.0   1.60   0.00   1.00    4.00    4.00    3.28    0.85    0.58    0.38      0      0      0       0      73 18.45
 2014 190    93    62   19.0      5   3.28   2592   3276    330    891   5868   9249   2622   12.6  0.036   3381      6  0.000  0.000  0.000  0.000  0.000  0.000  0.000   2.16   9.77   0.37      0   3381    126.7   1.60   0.00   1.00    4.00    4.00    3.54    0.88    0.61    0.43      0      0      0       0      73 19.42
 2014 191    94    63   19.0      5   3.27   2592   3276    501    916   5868   9420   2622   19.1  0.053   3552      6  0.000  0.000  0.000  0.000  0.000  0.000  0.000   2.11  14.10   0.38      0   3552    126.4   1.60   0.00   1.00    4.00    4.00    3.67    0.89    0.62    0.45      0      0      0       0      73 18.60
 2014 192    95    64   19.0      5   3.27   2592   3276    671    918   5868   9590   2622   25.6  0.070   3722      6  0.000  0.000  0.000  0.000  0.000  0.000  0.000   2.06  18.03   0.39      0   3722    126.0   1.60   0.00   1.00    4.00    4.00    3.68    0.89    0.62    0.45      0      0      0       0      73 17.50
 2014 193    96    65   19.0      5   3.25   2592   3276    842    951   5868   9760   2622   32.1  0.086   3893      6  0.000  0.000  0.000  0.000  0.000  0.000  0.000   2.01  21.62   0.40      0   3893    125.6   1.60   0.00   1.00    4.00    4.00    3.85    0.91    0.65    0.49      0      0      0       0      73 17.95
 2014 194    97    66   19.0      5   3.24   2592   3276   1005   1007   5868   9923   2622   38.3  0.101   4056      6  0.000  0.000  0.000  0.000  0.000  0.000  0.000   1.96  24.77   0.41      0   4056    125.0   1.60   0.00   1.00    4.00    4.00    4.00    0.94    0.68    0.54      0      0      0       0      73 19.35
 2014 195    98    67   19.0      5   3.22   2592   3276   1175   1059   5868  10094   2622   44.8  0.116   4226      6  0.000  0.000  0.000  0.000  0.000  0.000  0.000   1.91  27.80   0.42      0   4226    124.4   1.60   0.00   1.00    4.00    4.00    4.00    0.98    0.72    0.59      0      0      0       0      73 18.65
 2014 196    99    68   19.0      5   3.21   2592   3276   1337   1101   5868  10256   2622   51.0  0.130   4388      6  0.000  0.000  0.000  0.000  0.000  0.000  0.000   1.86  30.47   0.43      0   4388    123.7   1.60   0.00   1.00    4.00    4.00    4.00    1.00    0.75    0.63      0      0      0       0      73 19.40
 2014 197   100    69   19.0      5   3.18   2592   3276   1474   1133   5868  10393   2622   56.2  0.142   4525      6  0.000  0.000  0.000  0.000  0.000  0.000  0.000   1.82  32.58   0.44      0   4525    122.9   1.60   0.00   1.00    4.00    4.00    4.00    1.02    0.77    0.67      0      0      0       0      73 20.48
 2014 198   101    70   19.0      5   3.16   2592   3276   1628   1166   5868  10547   2622   62.1  0.154   4679      6  0.000  0.000  0.000  0.000  0.000  0.000  0.000   1.78  34.79   0.44      0   4679    122.0   1.60   0.00   1.00    4.00    4.00    4.00    1.04    0.79    0.70      0      0      0       0      73 19.80
 2014 199   102    71   19.0      5   3.13   2592   3276   1775   1225   5868  10694   2622   67.7  0.166   4826      6  0.000  0.000  0.000  0.000  0.000  0.000  0.000   1.73  36.78   0.45      0   4826    120.9   1.60   0.00   1.00    4.00    4.00    4.00    1.08    0.83    0.76      0      0      0       0      73 20.06
 2014 200   103    72   19.0      5   3.10   2592   3276   1924   1265   5868  10843   2622   73.4  0.177   4975      6  0.000  0.000  0.000  0.000  0.000  0.000  0.000   1.69  38.67   0.46      0   4975    119.8   1.60   0.00   1.00    3.99    4.00    4.00    1.10    0.86    0.80      0      0      0       0      73 20.00
 2014 201   104    73   19.0      5   3.07   2592   3276   2090   1288   5868  11009   2622   79.7  0.190   5141      6  0.000  0.000  0.000  0.000  0.000  0.000  0.000   1.64  40.65   0.47      0   5141    118.6   1.60   0.00   1.00    3.98    4.00    4.00    1.12    0.87    0.83      0      0      0       0      73 19.20
 2014 202   105    74   19.0      5   3.04   2592   3276   2242   1337   5868  11161   2622   85.5  0.201   5294      6  0.000  0.000  0.000  0.000  0.000  0.000  0.000   1.50  42.36   0.47      0   5294    117.2   1.60   0.00   1.00    4.00    4.00    4.00    1.15    0.91    0.88      0      0      0       0      80 19.68
 2014 203   106    75   19.0      5   3.00   2592   3276   2384   1398   5868  11303   2622   90.9  0.211   5435      6  0.000  0.000  0.000  0.000  0.000  0.000  0.000   1.47  43.86   0.48      0   5435    115.6   1.60   0.00   1.00    4.00    4.00    4.00    1.18    0.95    0.94      0      0      0       0      86 20.30
 2014 204   107    76   19.0      5   2.95   2592   3276   2543   1452   5868  11462   2622   97.0  0.222   5594      6  0.000  0.037  0.000  0.000  0.000  0.000  0.000   1.44  45.46   0.49      0   5594    114.0   1.60   0.00   1.00    3.98    4.00    4.00    1.22    0.99    1.00      0      0      0       0      93 19.55
 2014 205   108    77   19.0      5   2.91   2592   3276   2685   1501   5868  11603   2622  102.4  0.231   5736      6  0.000  0.000  0.000  0.000  0.000  0.000  0.000   1.41  46.81   0.49      0   5736    112.2   1.60   0.00   1.00    3.97    4.00    4.00    1.25    1.03    1.05      0      0      0       0     101 20.18
 2014 206   109    78   19.0      5   2.86   2592   3276   2840   1558   5868  11759   2622  108.3  0.242   5891      6  0.000  0.000  0.000  0.000  0.000  0.000  0.000   1.39  48.21   0.50      0   5891    110.3   1.60   0.00   1.00    3.95    4.00    4.00    1.29    1.07    1.11      0      0      0       0     108 19.61
 2014 207   110    79   19.0      5   2.80   2592   3276   2991   1586   5868  11910   2622  114.1  0.251   6043      6  0.000  0.000  0.000  0.000  0.000  0.000  0.000   1.35  49.51   0.51      0   6043    108.1   1.60   0.00   1.00    3.94    4.00    4.00    1.31    1.09    1.14      0      0      0       0     116 19.88
 2014 208   111    80   19.0      5   2.75   2592   3276   3157   1607   5868  12075   2622  120.4  0.261   6208      6  0.000  0.000  0.000  0.000  0.000  0.000  0.000   1.32  50.85   0.51      0   6208    106.0   1.60   0.00   1.00    3.92    4.00    4.00    1.32    1.10    1.17      0      0      0       0     124 19.25
 2014 209   112    81   19.0      5   2.68   2592   3276   3300   1656   5868  12219   2622  125.9  0.270   6351      6  0.000  0.000  0.000  0.000  0.000  0.000  0.000   1.30  51.96   0.52      0   6351    103.5   1.60   0.00   1.00    3.90    4.00    4.00    1.36    1.14    1.23      0      0      0       0     132 19.96
 2014 210   113    82   19.0      5   2.61   2592   3276   3446   1705   5868  12365   2622  131.4  0.279   6497      6  0.000  0.000  0.000  0.000  0.000  0.000  0.000   1.28  53.04   0.53      0   6497    100.9   1.60   0.00   1.00    3.89    4.00    4.00    1.39    1.18    1.28      0      0      0       0     140 20.04
 2014 211   114    83   19.0      5   2.55   2592   3276   3611   1752   5868  12530   2622  137.7  0.288   6663      6  0.000  0.000  0.000  0.000  0.000  0.000  0.000   1.25  54.21   0.53      0   6663     98.2   1.60   0.00   1.00    3.87    4.00    4.00    1.43    1.22    1.34      0      0      0       0     149 19.25
 2014 212   115    84   19.0      5   2.47   2592   3276   3761   1788   5868  12679   2622  143.4  0.297   6812      6  0.000  0.000  0.000  0.000  0.000  0.000  0.000   1.22  55.21   0.54      0   6812     95.2   1.60   0.00   1.00    3.86    4.00    4.00    1.45    1.25    1.38      0      0      0       0     157 19.92
 2014 213   116    85   19.0      5   2.39   2592   3276   3918   1827   5868  12837   2622  149.4  0.305   6969      6  0.000  0.000  0.000  0.000  0.000  0.000  0.000   1.20  56.22   0.54      0   6969     92.2   1.60   0.00   1.00    3.84    4.00    4.00    1.48    1.28    1.43      0      0      0       0     166 19.34
 2014 214   117    86   19.0      5   2.30   2592   3276   4079   1852   5868  12998   2622  155.6  0.314   7130      6  0.000  0.000  0.000  0.000  0.000  0.000  0.000   1.17  57.21   0.55      0   7130     88.9   1.60   0.00   1.00    3.82    4.00    4.00    1.50    1.30    1.46      0      0      0       0     175 19.45
 2014 215   118    87   19.0      5   2.22   2592   3276   4250   1874   5868  13168   2622  162.1  0.323   7301      6  0.000  0.000  0.000  0.000  0.000  0.000  0.000   1.15  58.21   0.55      0   7301     85.6   1.60   0.00   1.00    3.81    4.00    4.00    1.52    1.32    1.49      0      0      0       0     185 18.20
 2014 216   119    88   19.0      5   2.13   2592   3276   4414   1908   5868  13332   2622  168.3  0.331   7465      6  0.000  0.000  0.000  0.000  0.000  0.000  0.000   1.13  59.13   0.56      0   7465     82.0   1.60   0.00   1.00    3.79    4.00    4.00    1.54    1.35    1.53      0      0      0       0     194 19.23
 2014 217   120    89   19.0      5   2.04   2592   3226   4584   1899   5818  13453   2622  174.8  0.341   7635      6  0.000  0.000  0.000  0.000  0.000  0.000  0.000   1.09  60.04   0.57      0   7635     78.7   1.60   0.00   1.00    3.79    4.00    4.00    1.54    1.35    1.53      0      0      0       0     194 16.75
 2014 218   121    90   19.0      5   1.94   2592   3276   4751   1918   5868  13670   2622  181.2  0.348   7802      6  0.000  0.000  0.000  0.000  0.000  0.000  0.000   1.08  60.90   0.57      0   7802     74.7   1.60   0.00   1.00    3.77    4.00    4.00    1.56    1.36    1.56      0      0      0       0     204 19.15
 2014 219   122    91   19.0      5   1.82   2592   3276   4895   1935   5868  13814   2622  186.7  0.354   7946      6  0.000  0.000  0.000  0.000  0.000  0.000  0.000   1.06  61.60   0.58      0   7946     70.3   1.60   0.00   1.00    3.76    4.00    4.00    1.57    1.38    1.58      0      0      0       0     213 20.20
 2014 220   123    92   19.0      5   1.70   2592   3276   5051   1955   5868  13970   2622  192.6  0.362   8102      6  0.000  0.000  0.000  0.000  0.000  0.000  0.000   1.04  62.34   0.58      0   8102     65.8   1.60   0.00   1.00    3.74    4.00    4.00    1.59    1.40    1.61      0      0      0       0     223 19.70
 2014 221   124    93   19.0      5   1.58   2592   3276   5198   1974   5868  14117   2622  198.2  0.368   8249      6  0.000  0.000  0.000  0.000  0.000  0.000  0.000   1.02  63.01   0.58      0   8249     60.9   1.60   0.00   1.00    3.72    4.00    4.00    1.60    1.41    1.63      0      0      0       0     233 20.04
 2014 222   125    94   19.0      5   1.45   2592   3276   5343   1990   5868  14261   2622  203.7  0.375   8394      6  0.000  0.000  0.000  0.000  0.000  0.000  0.000   1.00  63.65   0.59      0   8394     55.8   1.60   0.00   1.00    3.70    4.00    4.00    1.62    1.43    1.66      0      0      0       0     242 20.12
 2014 223   126    95   19.0      5   1.45   2592   3276   5343   1990   5868  14261   2622  203.7  0.375   8394      6  0.000  0.000  0.000  0.000  0.000  0.000  0.000   1.00  63.65   0.59      0   8394     55.8   1.60   0.00   1.00    3.69    4.00    4.00    1.63    1.45    1.68      0      0      0       0     242 21.21
 2014 224   127    96   19.0      5   1.45   2592   3276   5343   1990   5868  14261   2622  203.7  0.375   8394      6  0.000  0.000  0.000  0.000  0.000  0.000  0.000   1.00  63.65   0.59      0   8394     55.8   1.60   0.00   1.00    3.67    4.00    4.00    1.64    1.46    1.71      0      0      0       0     242 20.28
 2014 225   128    97   19.0      5   1.45   2592   3276   5343   1990   5868  14261   2622  203.7  0.375   8394      6  0.000  0.000  0.000  0.000  0.000  0.000  0.000   1.00  63.65   0.59      0   8394     55.8   1.60   0.00   1.00    3.65    4.00    4.00    1.66    1.48    1.73      0      0      0       0     242  0.00
 2014 226   129    98   19.0      5   1.45   2592   3276   5343   1990   5868  14261   2622  203.7  0.375   8394      6  0.000  0.000  0.000  0.000  0.000  0.000  0.000   1.00  63.65   0.59      0   8394     55.8   1.60   0.00   1.00    3.64    4.00    4.00    1.67    1.49    1.75      0      0      0       0     242 20.84
