*GROWTH ASPECTS OUTPUT FILE

*DSSAT Cropping System Model Ver. 4.6.1.000 -release      MAY 05, 2017; 11:09:12
                                                                                
*RUN   1        : P1                        MZCER046 3\000003    1              
 MODEL          : MZCER046 - Maize                                              
 EXPERIMENT     : 3\000003 BN Calibracion Cerete 2013                           
 DATA PATH      : C:\L\0\00000                                                  
 TREATMENT  1   : P1                        MZCER046                            
  
!                                                                                                                                                                                                                                      Root Dens. (cm/cm3) by soil depth (cm):
!                                                                                                                                                                                                                                      0-5    5-15   15-26   26-51   51-75  75-100
@YEAR DOY   DAS   DAP   L#SD   GSTD   LAID   LWAD   SWAD   GWAD   RWAD   VWAD   CWAD   G#AD   GWGD   HIAD   PWAD   P#AD   WSPD   WSGD   NSTD   EWSD  PST1A  PST2A   KSTD   LN%D   SH%D   HIPD   PWDD   PWTD     SLAD   CHTD   CWID   RDPD    RL1D    RL2D    RL3D    RL4D    RL5D    RL6D   CDAD   LDAD   SDAD   SNW0C   SNW1C  DTTD
 2013 127    16     0    0.0      0   0.00      0      0      0      0      0      0      0    0.0  0.000      0      0  0.000  0.000  0.000  0.000  0.000  0.000  0.000   0.00   0.00   0.00      0      0      0.0   0.00   0.00   0.05    0.00    0.00    0.00    0.00    0.00    0.00      0      0      0       0       0 20.20
 2013 128    17     1    0.0      0   0.00      0      0      0      0      0      0      0    0.0  0.000      0      0  0.000  0.000  0.000  0.000  0.000  0.000  0.000   0.00   0.00   0.00      0      0      0.0   0.00   0.00   0.08    0.00    0.00    0.00    0.00    0.00    0.00      0      0      0       0       0 21.03
 2013 129    18     2    0.0      0   0.00      0      0      0      0      0      0      0    0.0  0.000      0      0  0.000  0.000  0.000  0.000  0.000  0.000  0.000   0.00   0.00   0.00      0      0      0.0   0.00   0.00   0.11    0.00    0.00    0.00    0.00    0.00    0.00      0      0      0       0       0 21.12
 2013 130    19     3    0.0      0   0.00      0      0      0      0      0      0      0    0.0  0.000      0      0  0.000  0.000  0.000  0.000  0.000  0.000  0.000   0.00   0.00   0.00      0      0      0.0   0.00   0.00   0.14    0.00    0.00    0.00    0.00    0.00    0.00      0      0      0       0       0 20.06
 2013 131    20     4    0.0      0   0.00      0      0      0      0      0      0      0    0.0  0.000      0      0  0.000  0.000  0.000  0.000  0.000  0.000  0.000   0.00   0.00   0.00      0      0      0.0   0.00   0.00   0.18    0.00    0.00    0.00    0.00    0.00    0.00      0      0      0       0       0 21.63
 2013 132    21     5    2.0      1   0.00     12     12      0     12     25     25      0    0.0  0.000      0      0  0.000  0.000  0.012  0.000  0.000  0.000  0.000   4.40   0.00   0.00      0      0     38.9   0.00   0.00   0.20    0.25    0.12    0.03    0.00    0.00    0.00      0      0      0       0       0 22.42
 2013 133    22     6    2.0      1   0.01     12     12      0     13     25     25      0    0.0  0.000      0      0  0.000  0.000  0.006  0.000  0.000  0.000  0.000   4.40   0.00   0.00      0      0     77.8   0.01   0.00   0.22    0.25    0.13    0.03    0.00    0.00    0.00      0      0      0       0       0 21.34
 2013 134    23     7    3.0      1   0.02     12     12      0     14     25     25      0    0.0  0.000      0      0  0.000  0.000  0.000  0.000  0.000  0.000  0.000   4.40   0.00   0.00      0      0    122.6   0.01   0.00   0.24    0.25    0.13    0.03    0.00    0.00    0.00      0      0      0       0       0 21.40
 2013 135    24     8    4.0      1   0.03     12     12      0     15     25     25      0    0.0  0.000      0      0  0.000  0.000  0.000  0.000  0.000  0.000  0.000   4.40   0.00   0.00      0      0    277.8   0.02   0.00   0.26    0.27    0.14    0.04    0.00    0.00    0.00      0      0      0       0       0 21.46
 2013 136    25     9    4.0      1   0.06     18     12      0     16     31     31      0    0.0  0.000      0      0  0.000  0.000  0.000  0.000  0.000  0.000  0.000   3.57   0.00   0.00      0      0    317.8   0.03   0.00   0.28    0.27    0.15    0.05    0.00    0.00    0.00      0      0      0       0       0 21.53
 2013 137    26    10    5.0      1   0.09     30     12      0     17     42     42      0    0.0  0.000      0      0  0.000  0.000  0.000  0.000  0.000  0.000  0.000   2.98   0.00   0.00      0      0    287.4   0.05   0.00   0.29    0.28    0.15    0.05    0.00    0.00    0.00      0      0      0       0       0 21.45
 2013 138    27    11    5.0      1   0.12     43     12      0     19     56     56      0    0.0  0.000      0      0  0.000  0.000  0.000  0.000  0.000  0.000  0.000   3.06   0.00   0.00      0      0    266.3   0.06   0.00   0.30    0.29    0.17    0.06    0.00    0.00    0.00      0      0      0       0       0 20.02
 2013 139    28    12    6.0      1   0.15     60     12      0     21     73     73      0    0.0  0.000      0      0  0.000  0.000  0.000  0.000  0.000  0.000  0.000   3.04   0.00   0.00      0      0    248.8   0.08   0.00   0.31    0.31    0.19    0.08    0.00    0.00    0.00      0      0      0       0       0 20.64
 2013 140    29    13    6.0      1   0.17     72     12      0     24     85     85      0    0.0  0.000      0      0  0.000  0.000  0.000  0.427  0.000  0.000  0.000   3.35   0.00   0.00      0      0    239.6   0.09   0.00   0.33    0.33    0.20    0.10    0.00    0.00    0.00      0      0      0       0       0 21.09
 2013 141    30    14    7.0      2   0.20     81     12      0     31     93     93      0    0.0  0.000      0      0  0.000  0.000  0.000  0.454  0.000  0.000  0.000   3.47   0.00   0.00      0      0    249.8   0.11   0.00   0.35    0.38    0.26    0.14    0.00    0.00    0.00      0      0      0       0       0 20.90
 2013 142    31    15    7.0      2   0.22     92     12      0     36    105    105      0    0.0  0.000      0      0  0.000  0.000  0.010  0.627  0.000  0.000  0.000   3.47   0.00   0.00      0      0    242.9   0.12   0.00   0.38    0.42    0.29    0.18    0.01    0.00    0.00      0      0      0       0       1 20.67
 2013 143    32    16    8.0      2   0.26    109     12      0     47    121    121      0    0.0  0.000      0      0  0.000  0.135  0.000  0.520  0.000  0.000  0.000   3.32   0.00   0.00      0      0    234.5   0.14   0.00   0.40    0.50    0.37    0.24    0.02    0.00    0.00      0      0      0       0       1 20.17
 2013 144    33    17    8.0      2   0.31    137     12      0     52    149    149      0    0.0  0.000      0      0  0.000  0.000  0.000  0.249  0.000  0.000  0.000   3.10   0.00   0.00      0      0    223.8   0.16   0.00   0.43    0.53    0.40    0.27    0.02    0.00    0.00      0      0      0       0       1 20.61
 2013 145    34    18    9.0      2   0.38    182     12      0     63    194    194      0    0.0  0.000      0      0  0.000  0.000  0.000  0.061  0.000  0.000  0.000   3.78   0.00   0.00      0      0    211.0   0.21   0.00   0.45    0.60    0.47    0.33    0.04    0.00    0.00      0      0      0       0       1 20.34
 2013 146    35    19    9.0      2   0.48    241     12      0     81    253    253      0    0.0  0.000      0      0  0.000  0.000  0.000  0.000  0.000  0.000  0.000   3.74   0.00   0.00      0      0    199.0   0.26   0.00   0.48    0.73    0.59    0.43    0.06    0.00    0.00      0      0      0       0       2 21.30
 2013 147    36    20   10.0      2   0.57    299     12      0     91    311    311      0    0.0  0.000      0      0  0.000  0.000  0.000  0.000  0.000  0.000  0.000   3.69   0.00   0.00      0      0    190.3   0.31   0.00   0.50    0.79    0.65    0.49    0.08    0.00    0.00      0      0      0       0       2 20.21
 2013 148    37    21   10.0      3   0.67    371     13      0    118    383    383      0    0.0  0.000      0      0  0.000  0.000  0.000  0.000  0.000  0.000  0.000   3.61   0.00   0.00      0      0    181.7   0.36   0.00   0.52    0.97    0.82    0.62    0.12    0.00    0.00      0      0      0       0       2 19.88
 2013 149    38    22   11.0      3   0.78    443     14      0    121    457    457      0    0.0  0.000      0      0  0.000  0.000  0.000  0.000  0.000  0.000  0.000   3.54   0.00   0.00      0      0    176.0   0.42   0.00   0.55    0.99    0.84    0.64    0.13    0.00    0.00      0      0      0       0       3 20.14
 2013 150    39    23   11.0      3   0.90    531     17      0    164    548    548      0    0.0  0.000      0      0  0.000  0.000  0.000  0.046  0.000  0.000  0.000   3.48   0.00   0.00      0      0    170.2   0.49   0.00   0.57    1.27    1.10    0.85    0.19    0.02    0.00      0      0      0       0       4 20.00
 2013 151    40    24   11.0      3   1.00    603     22      0    167    624    624      0    0.0  0.000      0      0  0.000  0.000  0.000  0.125  0.000  0.000  0.000   3.42   0.00   0.00      0      0    166.3   0.54   0.00   0.60    1.29    1.12    0.87    0.20    0.02    0.00      0      0      0       0       5 20.05
 2013 152    41    25   12.0      3   1.17    728     34      0    202    762    762      0    0.0  0.000      0      0  0.000  0.000  0.000  0.009  0.000  0.000  0.000   3.37   0.00   0.00      0      0    160.6   0.63   0.00   0.62    1.51    1.33    1.03    0.25    0.04    0.00      0      0      0       0       5 19.90
 2013 153    42    26   12.0      3   1.34    859     53      0    242    912    912      0    0.0  0.000      0      0  0.000  0.000  0.000  0.014  0.000  0.000  0.000   3.31   0.00   0.00      0      0    155.6   0.72   0.00   0.65    1.76    1.56    1.21    0.31    0.07    0.00      0      0      0       0       6 20.30
 2013 154    43    27   13.0      3   1.50    989     77      0    299   1066   1066      0    0.0  0.000      0      0  0.000  0.000  0.000  0.000  0.000  0.000  0.000   3.26   0.00   0.00      0      0    151.6   0.81   0.00   0.67    2.12    1.90    1.47    0.39    0.12    0.00      0      0      0       0       8 19.10
 2013 155    44    28   13.0      3   1.66   1124    111      0    331   1235   1235      0    0.0  0.000      0      0  0.000  0.000  0.000  0.000  0.000  0.000  0.000   3.21   0.00   0.00      0      0    147.9   0.90   0.00   0.69    2.29    2.06    1.62    0.44    0.15    0.00      0      0      0       0       9 19.30
 2013 156    45    29   14.0      3   1.83   1269    157      0    374   1426   1426      0    0.0  0.000      0      0  0.000  0.000  0.000  0.000  0.000  0.000  0.000   3.15   0.00   0.00      0      0    144.5   0.99   0.00   0.72    2.53    2.28    1.83    0.50    0.20    0.00      0      0      0       0      11 20.30
 2013 157    46    30   14.0      3   1.94   1362    193      0    442   1555   1555      0    0.0  0.000      0      0  0.000  0.000  0.000  0.353  0.000  0.000  0.000   3.10   0.00   0.00      0      0    142.6   1.05   0.00   0.74    2.90    2.63    2.14    0.61    0.28    0.00      0      0      0       0      13 19.50
 2013 158    47    31   15.0      3   2.09   1495    256      0    470   1750   1750      0    0.0  0.000      0      0  0.000  0.000  0.000  0.121  0.000  0.000  0.000   3.05   0.00   0.00      0      0    140.0   1.13   0.00   0.77    3.05    2.77    2.27    0.65    0.31    0.00      0      0      0       0      15 20.30
 2013 159    48    32   15.0      3   2.19   1578    303      0    475   1881   1881      0    0.0  0.000      0      0  0.000  0.000  0.000  0.380  0.000  0.000  0.000   3.00   0.00   0.00      0      0    138.6   1.18   0.00   0.79    3.07    2.79    2.30    0.66    0.32    0.00      0      0      0       0      17 20.45
 2013 160    49    33   16.0      3   2.31   1686    375      0    508   2061   2061      0    0.0  0.000      0      0  0.000  0.000  0.000  0.342  0.000  0.000  0.000   2.95   0.00   0.00      0      0    136.8   1.24   0.00   0.82    3.24    2.95    2.43    0.70    0.36    0.01      0      0      0       0      20 21.35
 2013 161    50    34   16.0      3   2.40   1775    444      0    514   2219   2219      0    0.0  0.000      0      0  0.000  0.000  0.000  0.255  0.000  0.000  0.000   2.90   0.00   0.00      0      0    135.5   1.30   0.00   0.84    3.27    2.98    2.46    0.71    0.37    0.01      0      0      0       0      22 19.70
 2013 162    51    35   17.0      3   2.52   1885    543      0    523   2428   2428      0    0.0  0.000      0      0  0.000  0.000  0.000  0.178  0.000  0.000  0.000   2.85   0.00   0.00      0      0    133.9   1.36   0.00   0.87    3.31    3.02    2.50    0.72    0.38    0.02      0      0      0       0      25 20.90
 2013 163    52    36   17.0      3   2.67   2018    679      0    535   2697   2697      0    0.0  0.000      0      0  0.000  0.000  0.000  0.058  0.000  0.000  0.000   2.80   0.00   0.00      0      0    132.1   1.44   0.00   0.89    3.37    3.08    2.54    0.74    0.39    0.03      0      0      0       0      27 19.90
 2013 164    53    37   18.0      3   2.86   2201    760      0    547   2961   2961      0    0.0  0.000      0      0  0.000  0.000  0.000  0.000  0.000  0.000  0.000   2.76   0.00   0.00      0      0    129.9   1.54   0.00   0.92    3.43    3.13    2.59    0.75    0.41    0.04      0      0      0       0      30 20.30
 2013 165    54    38   18.0      3   2.94   2282    858      0    555   3140   3141      0    0.0  0.000      1      0  0.000  0.000  0.000  0.000  0.000  0.000  0.000   2.71   0.00   0.00      0      1    129.0   1.59   0.00   0.94    3.47    3.16    2.61    0.76    0.42    0.05      0      0      0       0      33 20.80
 2013 166    55    39   18.0      3   3.05   2380   1015      0    566   3395   3400      0    0.0  0.000      5      0  0.000  0.000  0.000  0.000  0.000  0.000  0.000   2.67   0.00   0.00      0      5    127.9   1.60   0.00   0.96    3.52    3.21    2.65    0.78    0.43    0.06      0      0      0       0      35 19.90
 2013 167    56    40   19.0      3   3.17   2497   1233      0    583   3730   3746      0    0.0  0.000     16      0  0.000  0.000  0.000  0.000  0.000  0.000  0.000   2.63   0.00   0.00      0     16    126.8   1.60   0.00   0.99    3.60    3.28    2.71    0.80    0.45    0.08      0      0      0       0      38 20.05
 2013 168    57    41   19.0      3   3.24   2571   1392      0    593   3963   3987      0    0.0  0.000     24      0  0.000  0.000  0.000  0.000  0.000  0.000  0.000   2.58   0.00   0.01      0     24    126.0   1.60   0.00   1.00    3.65    3.32    2.74    0.81    0.46    0.10      0      0      0       0      41 20.95
 2013 169    58    42   20.0      3   3.34   2674   1623      0    610   4297   4348      0    0.0  0.000     51      0  0.000  0.000  0.000  0.000  0.000  0.000  0.000   2.55   0.00   0.01      0     51    125.1   1.60   0.00   1.00    3.73    3.39    2.80    0.83    0.48    0.12      0      0      0       0      44 20.75
 2013 170    59    43   20.0      3   3.43   2763   1825      0    625   4588   4674      0    0.0  0.000     86      0  0.000  0.000  0.000  0.000  0.000  0.000  0.000   2.51   0.00   0.02      0     86    124.3   1.60   0.00   1.00    3.81    3.45    2.84    0.85    0.50    0.14      0      0      0       0      47 18.60
 2013 171    60    44   21.0      3   3.47   2803   1930      0    631   4733   4829      0    0.0  0.000     96      0  0.000  0.000  0.000  0.000  0.000  0.000  0.000   2.46   0.00   0.02      0     96    123.9   1.60   0.00   1.00    3.83    3.47    2.86    0.86    0.50    0.15      0      0      0       0      50 20.40
 2013 172    61    45   21.0      3   3.54   2871   2087      0    643   4959   5108      0    0.0  0.000    149      0  0.000  0.098  0.000  0.000  0.000  0.000  0.000   2.44   0.00   0.03      0    149    123.3   1.60   0.00   1.00    3.89    3.52    2.89    0.87    0.52    0.17      0      0      0       0      53 20.10
 2013 173    62    46   21.0      3   3.55   2919   2152      0    698   5072   5304      0    0.0  0.000    232      0  0.208  0.472  0.000  0.000  0.000  0.000  0.000   2.43   0.00   0.04      0    232    121.7   1.60   0.00   1.00    4.00    3.74    3.06    0.95    0.58    0.25      0      0      0       0      57 20.90
 2013 174    63    47   21.0      3   3.60   2972   2247      0    707   5219   5519      0    0.0  0.000    300      0  0.000  0.293  0.000  0.000  0.000  0.000  0.000   2.36   0.00   0.05      0    300    121.3   1.60   0.00   1.00    4.00    3.78    3.08    0.96    0.59    0.26      0      0      0       0      57 21.10
 2013 175    64    48   21.0      3   3.65   3021   2342      0    714   5363   5716      0    0.0  0.000    353      0  0.000  0.000  0.000  0.000  0.000  0.000  0.000   2.31   0.00   0.06      0    353    120.9   1.60   0.00   1.00    4.00    3.81    3.09    0.97    0.60    0.27      0      0      0       0      60 19.10
 2013 176    65    49   21.0      3   3.69   3063   2422      0    720   5485   5884      0    0.0  0.000    400      0  0.000  0.000  0.000  0.000  0.000  0.000  0.000   2.28   0.00   0.07      0    400    120.6   1.60   0.00   1.00    4.00    3.83    3.11    0.98    0.61    0.28      0      0      0       0      64 19.00
 2013 177    66    50   21.0      4   3.56   3031   2573      0    734   5604   6250      0    0.0  0.000    647      0  0.000  0.000  0.000  0.000  0.000  0.000  0.000   2.33   0.00   0.10      0    647    117.4   1.60   0.00   1.00    4.00    3.89    3.14    0.99    0.62    0.30      0      0      0       0      67 20.25
 2013 178    67    51   21.0      4   3.54   2996   2655      0    742   5651   6483      0    0.0  0.000    832      0  0.000  0.000  0.000  0.000  0.000  0.000  0.000   2.31   0.00   0.13      0    832    118.1   1.60   0.00   1.00    4.00    3.92    3.18    1.01    0.63    0.32      0      0      0       0      67 21.63
 2013 179    68    52   21.0      4   3.52   2958   2712      0    748   5670   6667      0    0.0  0.000    997      0  0.000  0.000  0.000  0.000  0.000  0.000  0.000   2.30   0.00   0.15      0    997    119.0   1.60   0.00   1.00    4.00    3.93    3.20    1.01    0.64    0.33      0      0      0       0      67 18.55
 2013 180    69    53   21.0      4   3.50   2917   2811      0    758   5728   6946      0    0.0  0.000   1217      0  0.000  0.000  0.000  0.115  0.000  0.000  0.000   2.28   0.00   0.18      0   1217    120.1   1.60   0.00   1.00    4.00    3.97    3.24    1.03    0.65    0.35      0      0      0       0      67 18.60
 2013 181    70    54   21.0      4   3.48   2873   2881      0    768   5754   7222      0    0.0  0.000   1469      0  0.000  0.000  0.000  0.033  0.000  0.000  0.000   2.27   0.00   0.20      0   1469    121.3   1.60   0.00   1.00    4.00    4.00    3.28    1.05    0.67    0.36      0      0      0       0      67 19.60
 2013 182    71    55   21.0      4   3.47   2825   2960      0    775   5785   7429      0    0.0  0.000   1644      0  0.000  0.000  0.000  0.174  0.000  0.000  0.000   2.26   0.00   0.22      0   1644    122.6   1.60   0.00   1.00    3.99    4.00    3.31    1.06    0.68    0.38      0      0      0       0      67 21.25
 2013 183    72    56   21.0      4   3.45   2775   3051      0    786   5826   7724      0    0.0  0.000   1899      0  0.000  0.000  0.000  0.130  0.000  0.000  0.000   2.24   0.00   0.25      0   1899    124.2   1.60   0.00   1.00    4.00    4.00    3.35    1.07    0.69    0.39      0      0      0       0      67 20.20
 2013 184    73    57   21.0      4   3.43   2721   3134      0    800   5855   8082      0    0.0  0.000   2227      0  0.000  0.000  0.000  0.071  0.000  0.000  0.000   2.23   0.00   0.28      0   2227    125.9   1.60   0.00   1.00    4.00    4.00    3.40    1.09    0.71    0.41      0      0      0       0      67 20.55
 2013 185    74    58   21.0      4   3.41   2664   3182      0    810   5846   8342      0    0.0  0.000   2495      0  0.000  0.000  0.000  0.022  0.000  0.000  0.000   2.23   0.00   0.30      0   2495    127.9   1.60   0.00   1.00    4.00    4.00    3.43    1.11    0.72    0.43      0      0      0       0      67 20.55
 2013 186    75    59   21.0      5   3.35   2664   3182    169    862   5846   8511   2916    5.8  0.020   2665      6  0.000  0.000  0.000  0.000  0.000  0.000  0.000   2.18   6.36   0.31      0   2665    125.8   1.60   0.00   1.00    4.00    4.00    3.61    1.18    0.78    0.49      0      0      0       0      67 19.25
 2013 187    76    60   21.0      5   3.34   2664   3182    318    931   5846   8660   2916   10.9  0.037   2814      6  0.000  0.000  0.000  0.000  0.000  0.000  0.000   2.14  11.31   0.32      0   2814    125.5   1.60   0.00   1.00    4.00    4.00    3.86    1.27    0.85    0.58      0      0      0       0      67 20.20
 2013 188    77    61   21.0      5   3.33   2664   3182    455    956   5846   8797   2916   15.6  0.052   2950      6  0.000  0.000  0.000  0.000  0.000  0.000  0.000   2.09  15.42   0.34      0   2950    125.1   1.60   0.00   1.00    4.00    4.00    3.94    1.30    0.88    0.61      0      0      0       0      67 20.75
 2013 189    78    62   21.0      5   3.32   2664   3182    593   1001   5846   8934   2916   20.3  0.066   3088      6  0.000  0.000  0.000  0.000  0.000  0.000  0.000   2.05  19.19   0.35      0   3088    124.6   1.60   0.00   1.00    4.00    4.00    4.00    1.36    0.93    0.67      0      0      0       0      67 20.70
 2013 190    79    63   21.0      5   3.31   2664   3182    732   1065   5846   9073   2916   25.1  0.081   3227      6  0.000  0.000  0.000  0.000  0.000  0.000  0.000   2.01  22.67   0.36      0   3227    124.1   1.60   0.00   1.00    4.00    4.00    4.00    1.44    1.00    0.74      0      0      0       0      67 20.65
 2013 191    80    64   21.0      5   3.29   2664   3182    902   1114   5846   9244   2916   30.9  0.098   3397      6  0.000  0.000  0.000  0.000  0.000  0.000  0.000   1.96  26.55   0.37      0   3397    123.5   1.60   0.00   1.00    4.00    4.00    4.00    1.50    1.05    0.80      0      0      0       0      67 19.20
 2013 192    81    65   21.0      5   3.27   2664   3182   1071   1132   5846   9412   2916   36.7  0.114   3566      6  0.000  0.000  0.000  0.023  0.000  0.000  0.000   1.91  30.02   0.38      0   3566    122.8   1.60   0.00   1.00    4.00    4.00    4.00    1.52    1.06    0.82      0      0      0       0      67 19.30
 2013 193    82    66   21.0      5   3.25   2664   3182   1242   1192   5846   9584   2916   42.6  0.130   3738      6  0.000  0.000  0.000  0.000  0.000  0.000  0.000   1.86  33.24   0.39      0   3738    122.0   1.60   0.00   1.00    4.00    4.00    4.00    1.59    1.12    0.88      0      0      0       0      67 19.15
 2013 194    83    67   21.0      5   3.23   2664   3182   1393   1245   5846   9735   2916   47.8  0.143   3889      6  0.000  0.000  0.000  0.000  0.000  0.000  0.000   1.81  35.83   0.40      0   3889    121.1   1.60   0.00   1.00    4.00    4.00    4.00    1.65    1.18    0.94      0      0      0       0      67 20.10
 2013 195    84    68   21.0      5   3.20   2664   3182   1552   1303   5846   9893   2916   53.2  0.157   4047      6  0.000  0.000  0.000  0.000  0.000  0.000  0.000   1.76  38.34   0.41      0   4047    120.1   1.60   0.00   1.00    4.00    4.00    4.00    1.72    1.24    1.01      0      0      0       0      67 19.75
 2013 196    85    69   21.0      5   3.17   2664   3182   1694   1330   5846  10036   2916   58.1  0.169   4189      6  0.000  0.000  0.000  0.000  0.000  0.000  0.000   1.72  40.43   0.42      0   4189    118.9   1.60   0.00   1.00    4.00    4.00    4.00    1.75    1.27    1.04      0      0      0       0      67 20.50
 2013 197    86    70   21.0      5   3.13   2664   3182   1831   1377   5846  10172   2916   62.8  0.180   4326      6  0.000  0.000  0.000  0.000  0.000  0.000  0.000   1.68  42.32   0.43      0   4326    117.5   1.60   0.00   1.00    4.00    4.00    4.00    1.80    1.31    1.09      0      0      0       0      67 20.75
 2013 198    87    71   21.0      5   3.09   2664   3182   1997   1400   5846  10339   2916   68.5  0.193   4492      6  0.000  0.000  0.000  0.000  0.000  0.000  0.000   1.63  44.45   0.43      0   4492    116.2   1.60   0.00   1.00    4.00    4.00    4.00    1.83    1.34    1.12      0      0      0       0      67 19.40
 2013 199    88    72   21.0      5   3.05   2664   3182   2155   1420   5846  10497   2916   73.9  0.205   4651      6  0.000  0.000  0.000  0.028  0.000  0.000  0.000   1.46  46.35   0.44      0   4651    114.6   1.60   0.00   1.00    4.00    4.00    4.00    1.85    1.36    1.14      0      0      0       0      74 19.75
 2013 200    89    73   21.0      5   3.01   2664   3182   2330   1465   5846  10672   2916   79.9  0.218   4826      6  0.000  0.000  0.000  0.000  0.000  0.000  0.000   1.44  48.29   0.45      0   4826    113.0   1.60   0.00   1.00    4.00    4.00    4.00    1.90    1.40    1.19      0      0      0       0      81 18.90
 2013 201    90    74   21.0      5   2.96   2664   3182   2470   1509   5846  10812   2916   84.7  0.228   4966      6  0.000  0.000  0.000  0.000  0.000  0.000  0.000   1.40  49.75   0.46      0   4966    111.1   1.60   0.00   1.00    4.00    4.00    4.00    1.95    1.45    1.24      0      0      0       0      89 20.60
 2013 202    91    75   21.0      5   2.91   2664   3182   2628   1559   5846  10970   2916   90.1  0.240   5123      6  0.000  0.000  0.000  0.000  0.000  0.000  0.000   1.38  51.29   0.47      0   5123    109.1   1.60   0.00   1.00    4.00    4.00    4.00    2.01    1.50    1.29      0      0      0       0      96 19.80
 2013 203    92    76   21.0      5   2.85   2664   3182   2783   1584   5846  11125   2916   95.4  0.250   5278      6  0.000  0.000  0.000  0.000  0.000  0.000  0.000   1.34  52.73   0.47      0   5278    107.0   1.60   0.00   1.00    4.00    4.00    4.00    2.04    1.52    1.32      0      0      0       0     104 19.90
 2013 204    93    77   21.0      5   2.78   2664   3182   2912   1633   5846  11254   2916   99.9  0.259   5407      6  0.000  0.000  0.000  0.000  0.000  0.000  0.000   1.32  53.85   0.48      0   5407    104.5   1.60   0.00   1.00    4.00    4.00    4.00    2.10    1.57    1.37      0      0      0       0     112 21.10
 2013 205    94    78   21.0      5   2.71   2664   3182   3038   1689   5846  11380   2916  104.2  0.267   5533      6  0.000  0.259  0.000  0.000  0.000  0.000  0.000   1.29  54.90   0.49      0   5533    101.8   1.60   0.00   1.00    4.00    4.00    4.00    2.16    1.62    1.43      0      0      0       0     120 21.25
 2013 206    95    79   21.0      5   2.63   2664   3182   3160   1723   5846  11502   2916  108.4  0.275   5655      6  0.113  0.409  0.000  0.000  0.000  0.000  0.000   1.26  55.88   0.49      0   5655     98.9   1.60   0.00   1.00    4.00    4.00    4.00    2.20    1.66    1.47      0      0      0       0     129 21.05
 2013 207    96    80   21.0      5   2.56   2664   3182   3308   1748   5846  11649   2916  113.4  0.284   5803      6  0.000  0.000  0.000  0.000  0.000  0.000  0.000   1.23  57.00   0.50      0   5803     95.9   1.60   0.00   1.00    4.00    4.00    4.00    2.22    1.68    1.50      0      0      0       0     137 20.25
 2013 208    97    81   21.0      5   2.48   2664   3182   3483   1748   5846  11824   2916  119.4  0.295   5978      6  0.000  0.000  0.000  0.078  0.000  0.000  0.000   1.20  58.26   0.51      0   5978     93.0   1.60   0.00   1.00    4.00    4.00    4.00    2.22    1.68    1.50      0      0      0       0     146 18.65
 2013 209    98    82   21.0      5   2.38   2664   3182   3608   1797   5846  11950   2916  123.7  0.302   6104      6  0.000  0.000  0.000  0.124  0.000  0.000  0.000   1.18  59.12   0.51      0   6104     89.5   1.60   0.00   1.00    4.00    4.00    4.00    2.28    1.73    1.55      0      0      0       0     155 21.25
 2013 210    99    83   21.0      5   2.29   2664   3182   3771   1822   5846  12113   2916  129.3  0.311   6267      6  0.000  0.000  0.000  0.161  0.000  0.000  0.000   1.16  60.18   0.52      0   6267     86.0   1.60   0.00   1.00    4.00    4.00    4.00    2.31    1.75    1.58      0      0      0       0     164 19.55
 2013 211   100    84   21.0      5   2.20   2664   3182   3945   1835   5846  12287   2916  135.3  0.321   6440      6  0.000  0.000  0.000  0.127  0.000  0.000  0.000   1.13  61.26   0.52      0   6440     82.4   1.60   0.00   1.00    4.00    4.00    4.00    2.32    1.77    1.59      0      0      0       0     173 19.05
 2013 212   101    85   21.0      5   2.09   2664   3182   4095   1853   5846  12437   2916  140.4  0.329   6590      6  0.000  0.000  0.000  0.093  0.000  0.000  0.000   1.11  62.14   0.53      0   6590     78.4   1.60   0.00   1.00    4.00    4.00    4.00    2.34    1.78    1.61      0      0      0       0     182 20.15
 2013 213   102    86   21.0      5   1.97   2664   3182   4225   1861   5846  12567   2916  144.9  0.336   6720      6  0.000  0.000  0.000  0.130  0.000  0.000  0.000   1.08  62.87   0.53      0   6720     73.9   1.60   0.00   1.00    4.00    4.00    4.00    2.35    1.79    1.62      0      0      0       0     191 21.05
 2013 214   103    87   21.0      5   1.85   2664   3182   4383   1877   5846  12724   2916  150.3  0.344   6878      6  0.000  0.000  0.000  0.034  0.000  0.000  0.000   1.06  63.72   0.54      0   6878     69.5   1.60   0.00   1.00    4.00    4.00    4.00    2.37    1.81    1.64      0      0      0       0     201 19.80
 2013 215   104    88   21.0      5   1.72   2664   3182   4516   1920   5846  12858   2916  154.9  0.351   7011      6  0.000  0.000  0.000  0.030  0.000  0.000  0.000   1.05  64.41   0.55      0   7011     64.6   1.60   0.00   1.00    4.00    4.00    4.00    2.42    1.85    1.68      0      0      0       0     210 20.90
 2013 216   105    89   21.0      5   1.59   2664   3182   4681   1928   5846  13023   2916  160.5  0.359   7176      6  0.000  0.000  0.000  0.000  0.000  0.000  0.000   1.02  65.23   0.55      0   7176     59.7   1.60   0.00   1.00    4.00    4.00    4.00    2.42    1.86    1.69      0      0      0       0     220 19.45
 2013 217   106    90   21.0      5   1.46   2664   3182   4855   1920   5846  13197   2916  166.5  0.368   7350      6  0.000  0.000  0.000  0.000  0.000  0.000  0.000   0.99  66.05   0.56      0   7350     54.7   1.60   0.00   1.00    3.99    3.99    3.99    2.41    1.85    1.69      0      0      0       0     229 19.05
 2013 218   107    91   21.0      5   1.46   2664   3182   4855   1920   5846  13197   2916  166.5  0.368   7350      6  0.000  0.000  0.000  0.000  0.000  0.000  0.000   0.99  66.05   0.56      0   7350     54.7   1.60   0.00   1.00    3.97    3.98    3.98    2.40    1.84    1.68      0      0      0       0     229 20.60
 2013 219   108    92   21.0      5   1.46   2664   3182   4855   1920   5846  13197   2916  166.5  0.368   7350      6  0.000  0.000  0.000  0.000  0.000  0.000  0.000   0.99  66.05   0.56      0   7350     54.7   1.60   0.00   1.00    3.96    3.96    3.96    2.39    1.83    1.67      0      0      0       0     229 21.55
 2013 220   109    93   21.0      5   1.46   2664   3182   4855   1920   5846  13197   2916  166.5  0.368   7350      6  0.000  0.000  0.000  0.000  0.000  0.000  0.000   0.99  66.05   0.56      0   7350     54.7   1.60   0.00   1.00    3.94    3.95    3.95    2.38    1.83    1.67      0      0      0       0     229  0.00

*DSSAT Cropping System Model Ver. 4.6.1.000 -release      MAY 05, 2017; 11:09:12
                                                                                
*RUN   2        : P2                        MZCER046 3\000003    2              
 MODEL          : MZCER046 - Maize                                              
 EXPERIMENT     : 3\000003 BN Calibracion Cerete 2013                           
 DATA PATH      : C:\L\0\00000                                                  
 TREATMENT  2   : P2                        MZCER046                            
  
!                                                                                                                                                                                                                                      Root Dens. (cm/cm3) by soil depth (cm):
!                                                                                                                                                                                                                                      0-5    5-15   15-26   26-51   51-75  75-100
@YEAR DOY   DAS   DAP   L#SD   GSTD   LAID   LWAD   SWAD   GWAD   RWAD   VWAD   CWAD   G#AD   GWGD   HIAD   PWAD   P#AD   WSPD   WSGD   NSTD   EWSD  PST1A  PST2A   KSTD   LN%D   SH%D   HIPD   PWDD   PWTD     SLAD   CHTD   CWID   RDPD    RL1D    RL2D    RL3D    RL4D    RL5D    RL6D   CDAD   LDAD   SDAD   SNW0C   SNW1C  DTTD
 2013 141    16     0    0.0      0   0.00      0      0      0      0      0      0      0    0.0  0.000      0      0  0.000  0.000  0.000  0.000  0.000  0.000  0.000   0.00   0.00   0.00      0      0      0.0   0.00   0.00   0.05    0.00    0.00    0.00    0.00    0.00    0.00      0      0      0       0       0 20.90
 2013 142    17     1    0.0      0   0.00      0      0      0      0      0      0      0    0.0  0.000      0      0  0.000  0.000  0.000  0.000  0.000  0.000  0.000   0.00   0.00   0.00      0      0      0.0   0.00   0.00   0.08    0.00    0.00    0.00    0.00    0.00    0.00      0      0      0       0       0 20.67
 2013 143    18     2    0.0      0   0.00      0      0      0      0      0      0      0    0.0  0.000      0      0  0.000  0.000  0.000  0.000  0.000  0.000  0.000   0.00   0.00   0.00      0      0      0.0   0.00   0.00   0.11    0.00    0.00    0.00    0.00    0.00    0.00      0      0      0       0       0 20.17
 2013 144    19     3    0.0      0   0.00      0      0      0      0      0      0      0    0.0  0.000      0      0  0.000  0.000  0.000  0.000  0.000  0.000  0.000   0.00   0.00   0.00      0      0      0.0   0.00   0.00   0.14    0.00    0.00    0.00    0.00    0.00    0.00      0      0      0       0       0 20.61
 2013 145    20     4    0.0      0   0.00      0      0      0      0      0      0      0    0.0  0.000      0      0  0.000  0.000  0.000  0.000  0.000  0.000  0.000   0.00   0.00   0.00      0      0      0.0   0.00   0.00   0.17    0.00    0.00    0.00    0.00    0.00    0.00      0      0      0       0       0 20.34
 2013 146    21     5    2.0      1   0.00     12     12      0     12     25     25      0    0.0  0.000      0      0  0.000  0.000  0.012  0.000  0.000  0.000  0.000   4.40   0.00   0.00      0      0     36.7   0.00   0.00   0.19    0.25    0.12    0.02    0.00    0.00    0.00      0      0      0       0       0 21.30
 2013 147    22     6    2.0      1   0.01     12     12      0     13     25     25      0    0.0  0.000      0      0  0.000  0.000  0.008  0.000  0.000  0.000  0.000   4.40   0.00   0.00      0      0     72.8   0.00   0.00   0.21    0.25    0.13    0.02    0.00    0.00    0.00      0      0      0       0       0 20.21
 2013 148    23     7    3.0      1   0.01     12     12      0     14     25     25      0    0.0  0.000      0      0  0.000  0.000  0.000  0.000  0.000  0.000  0.000   4.40   0.00   0.00      0      0    113.3   0.01   0.00   0.23    0.26    0.14    0.03    0.00    0.00    0.00      0      0      0       0       0 19.88
 2013 149    24     8    4.0      1   0.03     12     12      0     15     25     25      0    0.0  0.000      0      0  0.000  0.000  0.000  0.000  0.000  0.000  0.000   4.40   0.00   0.00      0      0    250.3   0.02   0.00   0.25    0.27    0.14    0.04    0.00    0.00    0.00      0      0      0       0       0 20.14
 2013 150    25     9    4.0      1   0.05     16     12      0     17     28     28      0    0.0  0.000      0      0  0.000  0.000  0.000  0.000  0.000  0.000  0.000   3.84   0.00   0.00      0      0    326.0   0.03   0.00   0.27    0.29    0.16    0.05    0.00    0.00    0.00      0      0      0       0       0 20.77
 2013 151    26    10    5.0      1   0.08     26     12      0     18     39     39      0    0.0  0.000      0      0  0.000  0.000  0.000  0.000  0.000  0.000  0.000   3.06   0.00   0.00      0      0    295.2   0.04   0.00   0.29    0.29    0.17    0.06    0.00    0.00    0.00      0      0      0       0       0 20.26
 2013 152    27    11    5.0      1   0.11     39     12      0     22     52     52      0    0.0  0.000      0      0  0.000  0.000  0.000  0.000  0.000  0.000  0.000   3.03   0.00   0.00      0      0    271.6   0.06   0.00   0.30    0.32    0.19    0.08    0.00    0.00    0.00      0      0      0       0       0 20.81
 2013 153    28    12    6.0      1   0.14     56     12      0     28     68     68      0    0.0  0.000      0      0  0.000  0.000  0.000  0.000  0.000  0.000  0.000   3.04   0.00   0.00      0      0    252.9   0.08   0.00   0.31    0.37    0.24    0.12    0.00    0.00    0.00      0      0      0       0       0 20.96
 2013 154    29    13    6.0      1   0.18     74     12      0     38     87     87      0    0.0  0.000      0      0  0.000  0.000  0.000  0.000  0.000  0.000  0.000   3.08   0.00   0.00      0      0    238.3   0.10   0.00   0.32    0.46    0.32    0.18    0.01    0.00    0.00      0      0      0       0       0 19.97
 2013 155    30    14    7.0      2   0.21     86     12      0     52     99     99      0    0.0  0.000      0      0  0.000  0.000  0.000  0.263  0.000  0.000  0.000   3.39   0.00   0.00      0      0    246.7   0.11   0.00   0.34    0.55    0.42    0.27    0.01    0.00    0.00      0      0      0       0       1 19.94
 2013 156    31    15    7.0      2   0.26    113     12      0     65    125    125      0    0.0  0.000      0      0  0.000  0.000  0.005  0.134  0.000  0.000  0.000   3.06   0.00   0.00      0      0    233.3   0.14   0.00   0.36    0.64    0.50    0.35    0.03    0.00    0.00      0      0      0       0       1 21.19
 2013 157    32    16    7.0      2   0.30    132     12      0     84    144    144      0    0.0  0.000      0      0  0.000  0.000  0.000  0.456  0.000  0.000  0.000   3.34   0.00   0.00      0      0    225.9   0.16   0.00   0.39    0.78    0.63    0.47    0.04    0.00    0.00      0      0      0       0       1 20.12
 2013 158    33    17    8.0      2   0.36    166     12      0     97    178    178      0    0.0  0.000      0      0  0.000  0.000  0.000  0.188  0.000  0.000  0.000   3.07   0.00   0.00      0      0    215.4   0.19   0.00   0.41    0.86    0.71    0.55    0.06    0.00    0.00      0      0      0       0       2 20.80
 2013 159    34    18    8.0      2   0.40    194     12      0    101    206    206      0    0.0  0.000      0      0  0.000  0.000  0.000  0.331  0.000  0.000  0.000   3.78   0.00   0.00      0      0    208.4   0.22   0.00   0.44    0.89    0.74    0.58    0.06    0.00    0.00      0      0      0       0       2 20.61
 2013 160    35    19    9.0      2   0.48    239     12      0    114    251    251      0    0.0  0.000      0      0  0.000  0.000  0.000  0.237  0.000  0.000  0.000   3.74   0.00   0.00      0      0    199.5   0.26   0.00   0.46    0.97    0.82    0.65    0.08    0.00    0.00      0      0      0       0       3 21.84
 2013 161    36    20    9.0      2   0.54    280     12      0    121    292    292      0    0.0  0.000      0      0  0.000  0.000  0.000  0.158  0.000  0.000  0.000   3.69   0.00   0.00      0      0    192.9   0.29   0.00   0.49    1.02    0.86    0.69    0.09    0.00    0.00      0      0      0       0       3 19.97
 2013 162    37    21   10.0      3   0.64    349     13      0    129    362    362      0    0.0  0.000      0      0  0.000  0.000  0.000  0.072  0.000  0.000  0.000   3.61   0.00   0.00      0      0    184.0   0.35   0.00   0.51    1.06    0.91    0.73    0.11    0.00    0.00      0      0      0       0       4 21.32
 2013 163    38    22   10.0      3   0.76    431     14      0    148    445    445      0    0.0  0.000      0      0  0.000  0.000  0.000  0.000  0.000  0.000  0.000   3.53   0.00   0.00      0      0    177.2   0.41   0.00   0.54    1.18    1.02    0.84    0.14    0.00    0.00      0      0      0       0       4 20.58
 2013 164    39    23   11.0      3   0.90    524     18      0    167    542    542      0    0.0  0.000      0      0  0.000  0.000  0.000  0.000  0.000  0.000  0.000   3.47   0.00   0.00      0      0    170.9   0.48   0.00   0.56    1.30    1.13    0.94    0.17    0.01    0.00      0      0      0       0       5 20.78
 2013 165    40    24   11.0      3   1.01    611     24      0    172    635    635      0    0.0  0.000      0      0  0.000  0.000  0.000  0.000  0.000  0.000  0.000   3.41   0.00   0.00      0      0    166.1   0.55   0.00   0.59    1.33    1.15    0.96    0.18    0.01    0.00      0      0      0       0       6 20.80
 2013 166    41    25   12.0      3   1.18    737     37      0    181    774    774      0    0.0  0.000      0      0  0.000  0.000  0.000  0.000  0.000  0.000  0.000   3.36   0.00   0.00      0      0    160.4   0.64   0.00   0.61    1.38    1.20    1.00    0.20    0.02    0.00      0      0      0       0       7 19.90
 2013 167    42    26   12.0      3   1.35    869     57      0    222    926    926      0    0.0  0.000      0      0  0.000  0.000  0.000  0.000  0.000  0.000  0.000   3.30   0.00   0.00      0      0    155.5   0.73   0.00   0.64    1.64    1.42    1.20    0.26    0.05    0.00      0      0      0       0       8 20.05
 2013 168    43    27   13.0      3   1.52   1001     84      0    230   1085   1085      0    0.0  0.000      0      0  0.000  0.000  0.000  0.000  0.000  0.000  0.000   3.24   0.00   0.00      0      0    151.3   0.82   0.00   0.66    1.68    1.46    1.23    0.28    0.05    0.00      0      0      0       0       9 20.95
 2013 169    44    28   13.0      3   1.63   1097    110      0    308   1207   1207      0    0.0  0.000      0      0  0.006  0.338  0.000  0.000  0.000  0.000  0.000   3.19   0.00   0.00      0      0    148.7   0.88   0.00   0.69    2.16    1.86    1.59    0.40    0.13    0.00      0      0      0       0      10 20.75
 2013 170    45    29   14.0      3   1.70   1169    134      0    365   1303   1303      0    0.0  0.000      0      0  0.185  0.457  0.000  0.000  0.000  0.000  0.000   3.19   0.00   0.00      0      0    145.5   0.92   0.00   0.71    2.52    2.15    1.84    0.49    0.20    0.00      0      0      0       0      12 18.60
 2013 171    46    30   14.0      3   1.80   1251    167      0    370   1418   1418      0    0.0  0.000      0      0  0.000  0.086  0.000  0.000  0.000  0.000  0.000   3.09   0.00   0.00      0      0    143.7   0.97   0.00   0.74    2.54    2.17    1.86    0.49    0.20    0.00      0      0      0       0      13 20.40
 2013 172    47    31   15.0      3   1.83   1310    197      0    395   1507   1507      0    0.0  0.000      0      0  0.395  0.597  0.000  0.000  0.000  0.000  0.000   3.15   0.00   0.00      0      0    139.7   0.99   0.00   0.76    2.64    2.30    1.97    0.53    0.24    0.00      0      0      0       0      15 20.10
 2013 173    48    32   15.0      3   1.82   1350    221      0    420   1571   1571      0    0.0  0.000      0      0  0.605  0.737  0.000  0.000  0.000  0.000  0.000   3.17   0.00   0.00      0      0    134.8   0.99   0.00   0.78    2.63    2.44    2.10    0.58    0.28    0.00      0      0      0       0      17 20.90
 2013 174    49    33   16.0      3   1.84   1406    260      0    423   1666   1666      0    0.0  0.000      0      0  0.421  0.615  0.000  0.000  0.000  0.000  0.000   3.05   0.00   0.00      0      0    131.1   0.99   0.00   0.81    2.65    2.45    2.11    0.58    0.28    0.01      0      0      0       0      19 21.10
 2013 175    50    34   16.0      3   1.94   1489    327      0    430   1816   1816      0    0.0  0.000      0      0  0.000  0.000  0.000  0.000  0.000  0.000  0.000   2.88   0.00   0.00      0      0    130.2   1.04   0.00   0.83    2.68    2.49    2.13    0.59    0.29    0.01      0      0      0       0      21 19.10
 2013 176    51    35   17.0      3   2.02   1558    390      0    435   1947   1947      0    0.0  0.000      0      0  0.000  0.000  0.000  0.000  0.000  0.000  0.000   2.84   0.00   0.00      0      0    129.4   1.09   0.00   0.85    2.71    2.51    2.14    0.60    0.30    0.01      0      0      0       0      24 19.00
 2013 177    52    36   17.0      3   2.18   1709    547      0    450   2256   2256      0    0.0  0.000      0      0  0.000  0.000  0.000  0.000  0.000  0.000  0.000   2.79   0.00   0.00      0      0    127.8   1.18   0.00   0.88    2.79    2.59    2.19    0.62    0.32    0.02      0      0      0       0      26 20.25
 2013 178    53    37   17.0      3   2.25   1791    630      0    457   2421   2423      0    0.0  0.000      1      0  0.235  0.490  0.000  0.000  0.000  0.000  0.000   2.80   0.00   0.00      0      1    125.4   1.21   0.00   0.91    2.82    2.62    2.22    0.63    0.33    0.03      0      0      0       0      28 21.63
 2013 179    54    38   18.0      3   2.33   1864    738      0    465   2603   2606      0    0.0  0.000      3      0  0.000  0.000  0.000  0.000  0.000  0.000  0.000   2.70   0.00   0.00      0      3    124.8   1.25   0.00   0.93    2.85    2.65    2.26    0.64    0.33    0.04      0      0      0       0      30 18.55
 2013 180    55    39   18.0      3   2.43   1958    907      0    477   2865   2874      0    0.0  0.000      9      0  0.000  0.000  0.000  0.156  0.000  0.000  0.000   2.66   0.00   0.00      0      9    124.0   1.31   0.00   0.95    2.91    2.71    2.31    0.65    0.35    0.05      0      0      0       0      33 18.60
 2013 181    56    40   19.0      3   2.52   2045   1086      0    490   3131   3149      0    0.0  0.000     18      0  0.000  0.000  0.000  0.025  0.000  0.000  0.000   2.62   0.00   0.01      0     18    123.2   1.36   0.00   0.97    2.96    2.76    2.37    0.67    0.36    0.06      0      0      0       0      35 19.60
 2013 182    57    41   19.0      3   2.59   2109   1234      0    500   3343   3371      0    0.0  0.000     27      0  0.000  0.000  0.000  0.191  0.000  0.000  0.000   2.57   0.00   0.01      0     27    122.7   1.39   0.00   1.00    2.99    2.80    2.41    0.68    0.37    0.07      0      0      0       0      37 21.25
 2013 183    58    42   20.0      3   2.67   2192   1431      0    515   3622   3676      0    0.0  0.000     54      0  0.000  0.000  0.000  0.138  0.000  0.000  0.000   2.54   0.00   0.01      0     54    122.0   1.44   0.00   1.00    3.04    2.87    2.47    0.70    0.38    0.09      0      0      0       0      40 20.20
 2013 184    59    43   20.0      3   2.77   2281   1640      0    544   3920   4022      0    0.0  0.000    102      0  0.000  0.000  0.000  0.067  0.000  0.000  0.000   2.51   0.00   0.03      0    102    121.3   1.49   0.00   1.00    3.14    2.99    2.60    0.74    0.41    0.12      0      0      0       0      43 20.55
 2013 185    60    44   21.0      3   2.84   2351   1816      0    557   4167   4310      0    0.0  0.000    143      0  0.000  0.000  0.000  0.007  0.000  0.000  0.000   2.46   0.00   0.03      0    143    120.8   1.53   0.00   1.00    3.17    3.04    2.66    0.76    0.43    0.14      0      0      0       0      45 20.55
 2013 186    61    45   21.0      3   2.92   2429   1990      0    573   4419   4643      0    0.0  0.000    224      0  0.000  0.000  0.000  0.000  0.000  0.000  0.000   2.44   0.00   0.05      0    224    120.2   1.57   0.00   1.00    3.22    3.11    2.72    0.78    0.45    0.16      0      0      0       0      48 19.25
 2013 187    62    46   21.0      3   3.01   2513   2138      0    604   4651   4997      0    0.0  0.000    346      0  0.000  0.000  0.000  0.000  0.000  0.000  0.000   2.42   0.00   0.07      0    346    119.6   1.60   0.00   1.00    3.32    3.23    2.85    0.82    0.48    0.20      0      0      0       0      51 20.20
 2013 188    63    47   21.0      3   3.06   2566   2252      0    613   4818   5221      0    0.0  0.000    403      0  0.000  0.000  0.000  0.000  0.000  0.000  0.000   2.34   0.00   0.08      0    403    119.3   1.60   0.00   1.00    3.34    3.27    2.89    0.83    0.49    0.21      0      0      0       0      54 20.75
 2013 189    64    48   21.0      3   3.13   2635   2356      0    626   4991   5513      0    0.0  0.000    522      0  0.000  0.000  0.000  0.000  0.000  0.000  0.000   2.33   0.00   0.09      0    522    118.8   1.60   0.00   1.00    3.38    3.32    2.94    0.85    0.50    0.23      0      0      0       0      57 20.70
 2013 190    65    49   21.0      3   3.22   2722   2415      0    645   5137   5877      0    0.0  0.000    740      0  0.000  0.000  0.000  0.000  0.000  0.000  0.000   2.33   0.00   0.13      0    740    118.2   1.60   0.00   1.00    3.42    3.40    3.02    0.88    0.53    0.25      0      0      0       0      60 20.65
 2013 191    66    50   21.0      4   3.22   2692   2538      0    657   5230   6201      0    0.0  0.000    970      0  0.000  0.000  0.000  0.000  0.000  0.000  0.000   2.31   0.00   0.16      0    970    119.5   1.60   0.00   1.00    3.43    3.45    3.07    0.89    0.54    0.27      0      0      0       0      63 19.20
 2013 192    67    51   21.0      4   3.21   2659   2608      0    664   5267   6407      0    0.0  0.000   1141      0  0.000  0.000  0.000  0.000  0.000  0.000  0.000   2.30   0.00   0.18      0   1141    120.9   1.60   0.00   1.00    3.44    3.47    3.10    0.90    0.55    0.28      0      0      0       0      63 19.30
 2013 193    68    52   21.0      4   3.20   2624   2704      0    678   5328   6769      0    0.0  0.000   1441      0  0.000  0.000  0.000  0.000  0.000  0.000  0.000   2.27   0.00   0.21      0   1441    121.9   1.60   0.00   1.00    3.47    3.53    3.16    0.93    0.56    0.30      0      0      0       0      63 19.15
 2013 194    69    53   21.0      4   3.18   2585   2777      0    690   5362   7085      0    0.0  0.000   1723      0  0.000  0.000  0.000  0.000  0.000  0.000  0.000   2.25   0.00   0.24      0   1723    123.1   1.60   0.00   1.00    3.49    3.58    3.21    0.94    0.58    0.32      0      0      0       0      63 20.10
 2013 195    70    54   21.0      4   3.16   2544   2846      0    704   5390   7427      0    0.0  0.000   2037      0  0.000  0.000  0.000  0.000  0.000  0.000  0.000   2.24   0.00   0.27      0   2037    124.4   1.60   0.00   1.00    3.52    3.63    3.26    0.96    0.59    0.34      0      0      0       0      63 19.75
 2013 196    71    55   21.0      4   3.15   2500   2902      0    711   5402   7633      0    0.0  0.000   2231      0  0.000  0.076  0.000  0.000  0.000  0.000  0.000   2.24   0.00   0.29      0   2231    125.9   1.60   0.00   1.00    3.53    3.66    3.29    0.97    0.60    0.35      0      0      0       0      63 20.50
 2013 197    72    56   21.0      4   3.11   2452   3042      0    718   5495   7839      0    0.0  0.000   2345      0  0.212  0.475  0.000  0.000  0.000  0.000  0.000   2.20   0.00   0.30      0   2345    127.0   1.60   0.00   1.00    3.58    3.69    3.32    0.98    0.61    0.36      0      0      0       0      63 20.75
 2013 198    73    57   21.0      4   3.11   2402   3079      0    726   5481   8054      0    0.0  0.000   2572      0  0.000  0.000  0.000  0.000  0.000  0.000  0.000   2.21   0.00   0.32      0   2572    129.6   1.60   0.00   1.00    3.62    3.71    3.35    0.99    0.62    0.37      0      0      0       0      63 19.40
 2013 199    74    58   21.0      5   3.05   2402   3079    156    750   5481   8210   2873    5.4  0.019   2728      6  0.000  0.000  0.000  0.000  0.000  0.000  0.000   2.16   5.73   0.33      0   2728    127.1   1.60   0.00   1.00    3.76    3.81    3.44    1.02    0.64    0.40      0      0      0       0      63 19.75
 2013 200    75    59   21.0      5   3.05   2402   3079    329    800   5481   8382   2873   11.4  0.039   2901      6  0.000  0.000  0.000  0.000  0.000  0.000  0.000   2.10  11.33   0.35      0   2901    126.9   1.60   0.00   1.00    4.00    4.00    3.62    1.08    0.69    0.45      0      0      0       0      63 18.90
 2013 201    76    60   21.0      5   3.04   2402   3079    466    847   5481   8520   2873   16.2  0.055   3039      6  0.000  0.000  0.000  0.000  0.000  0.000  0.000   2.06  15.35   0.36      0   3039    126.5   1.60   0.00   1.00    4.00    4.00    3.81    1.14    0.74    0.50      0      0      0       0      63 20.60
 2013 202    77    61   21.0      5   3.03   2402   3079    622    902   5481   8675   2873   21.6  0.072   3194      6  0.000  0.000  0.000  0.000  0.000  0.000  0.000   2.01  19.46   0.37      0   3194    126.1   1.60   0.00   1.00    4.00    4.00    4.00    1.21    0.79    0.57      0      0      0       0      63 19.80
 2013 203    78    62   21.0      5   3.02   2402   3079    775    932   5481   8828   2873   27.0  0.088   3347      6  0.000  0.000  0.000  0.000  0.000  0.000  0.000   1.96  23.14   0.38      0   3347    125.6   1.60   0.00   1.00    4.00    4.00    4.00    1.24    0.82    0.60      0      0      0       0      63 19.90
 2013 204    79    63   21.0      5   3.00   2402   3079    902    987   5481   8955   2873   31.4  0.101   3474      6  0.000  0.137  0.000  0.000  0.000  0.000  0.000   1.92  25.96   0.39      0   3474    125.1   1.60   0.00   1.00    4.00    4.00    4.00    1.31    0.88    0.66      0      0      0       0      63 21.10
 2013 205    80    64   21.0      5   2.93   2402   3079    992   1009   5481   9046   2873   34.5  0.110   3564      6  0.490  0.661  0.000  0.000  0.000  0.000  0.000   1.89  27.83   0.39      0   3564    122.0   1.60   0.00   1.00    4.00    4.00    4.00    1.34    0.90    0.69      0      0      0       0      63 21.25
 2013 206    81    65   21.0      5   2.86   2402   3079   1084   1022   5481   9138   2873   37.7  0.119   3656      6  0.516  0.678  0.000  0.000  0.000  0.000  0.000   1.85  29.65   0.40      0   3656    118.8   1.60   0.00   1.00    4.00    4.00    4.00    1.35    0.91    0.70      0      0      0       0      63 21.05
 2013 207    82    66   21.0      5   2.86   2402   3079   1229   1053   5481   9283   2873   42.8  0.132   3801      6  0.000  0.000  0.000  0.000  0.000  0.000  0.000   1.81  32.34   0.41      0   3801    118.8   1.60   0.00   1.00    4.00    4.00    4.00    1.39    0.94    0.73      0      0      0       0      63 20.25
 2013 208    83    67   21.0      5   2.86   2402   3079   1402   1060   5481   9455   2873   48.8  0.148   3974      6  0.000  0.000  0.000  0.088  0.000  0.000  0.000   1.75  35.27   0.42      0   3974    118.8   1.60   0.00   1.00    4.00    4.00    4.00    1.39    0.94    0.74      0      0      0       0      63 18.65
 2013 209    84    68   21.0      5   2.86   2402   3079   1526   1118   5481   9579   2873   53.1  0.159   4098      6  0.000  0.000  0.000  0.145  0.000  0.000  0.000   1.71  37.23   0.43      0   4098    118.8   1.60   0.00   1.00    4.00    4.00    4.00    1.46    1.00    0.80      0      0      0       0      63 21.25
 2013 210    85    69   21.0      5   2.86   2402   3079   1686   1153   5481   9740   2873   58.7  0.173   4258      6  0.000  0.000  0.000  0.185  0.000  0.000  0.000   1.66  39.60   0.44      0   4258    118.8   1.60   0.00   1.00    4.00    4.00    4.00    1.50    1.03    0.83      0      0      0       0      63 19.55
 2013 211    86    70   21.0      5   2.84   2402   3079   1857   1175   5481   9911   2873   64.7  0.187   4429      6  0.000  0.000  0.000  0.136  0.000  0.000  0.000   1.51  41.93   0.45      0   4429    118.1   1.60   0.00   1.00    4.00    4.00    4.00    1.52    1.05    0.86      0      0      0       0      69 19.05
 2013 212    87    71   21.0      5   2.80   2402   3079   2005   1206   5481  10059   2873   69.8  0.199   4577      6  0.000  0.000  0.000  0.071  0.000  0.000  0.000   1.48  43.80   0.46      0   4577    116.6   1.60   0.00   1.00    4.00    4.00    4.00    1.56    1.08    0.89      0      0      0       0      75 20.15
 2013 213    88    72   21.0      5   2.76   2402   3079   2133   1224   5481  10187   2873   74.3  0.209   4705      6  0.000  0.000  0.000  0.107  0.000  0.000  0.000   1.44  45.34   0.46      0   4705    114.9   1.60   0.00   1.00    4.00    4.00    4.00    1.58    1.09    0.91      0      0      0       0      81 21.05
 2013 214    89    73   21.0      5   2.72   2402   3079   2288   1254   5481  10342   2873   79.7  0.221   4860      6  0.000  0.000  0.000  0.045  0.000  0.000  0.000   1.42  47.08   0.47      0   4860    113.1   1.60   0.00   1.00    4.00    4.00    4.00    1.61    1.12    0.94      0      0      0       0      87 19.80
 2013 215    90    74   21.0      5   2.67   2402   3079   2420   1317   5481  10473   2873   84.2  0.231   4992      6  0.000  0.000  0.000  0.046  0.000  0.000  0.000   1.40  48.47   0.48      0   4992    111.1   1.60   0.00   1.00    4.00    4.00    4.00    1.69    1.18    1.00      0      0      0       0      93 20.90
 2013 216    91    75   21.0      5   2.62   2402   3079   2582   1342   5481  10636   2873   89.9  0.243   5154      6  0.000  0.000  0.000  0.000  0.000  0.000  0.000   1.36  50.10   0.48      0   5154    109.0   1.60   0.00   1.00    4.00    4.00    4.00    1.72    1.20    1.03      0      0      0       0     100 19.45
 2013 217    92    76   21.0      5   2.57   2402   3079   2754   1350   5481  10807   2873   95.9  0.255   5326      6  0.000  0.000  0.000  0.000  0.000  0.000  0.000   1.33  51.70   0.49      0   5326    106.8   1.60   0.00   1.00    4.00    4.00    4.00    1.72    1.21    1.04      0      0      0       0     107 19.05
 2013 218    93    77   21.0      5   2.51   2402   3079   2891   1376   5481  10945   2873  100.7  0.264   5464      6  0.000  0.000  0.000  0.000  0.000  0.000  0.000   1.30  52.92   0.50      0   5464    104.3   1.60   0.00   1.00    4.00    4.00    4.00    1.75    1.23    1.06      0      0      0       0     113 20.60
 2013 219    94    78   21.0      5   2.44   2402   3079   3009   1415   5481  11062   2873  104.7  0.272   5581      6  0.000  0.142  0.000  0.000  0.000  0.000  0.000   1.27  53.91   0.50      0   5581    101.5   1.60   0.00   1.00    4.00    4.00    4.00    1.80    1.27    1.11      0      0      0       0     120 21.55
 2013 220    95    79   21.0      5   2.37   2402   3079   3160   1427   5481  11213   2873  110.0  0.282   5732      6  0.000  0.000  0.000  0.000  0.000  0.000  0.000   1.24  55.13   0.51      0   5732     98.6   1.60   0.00   1.00    4.00    4.00    4.00    1.82    1.28    1.12      0      0      0       0     127 20.00
 2013 221    96    80   21.0      5   2.29   2402   3079   3281   1454   5481  11335   2873  114.2  0.289   5854      6  0.000  0.000  0.000  0.014  0.000  0.000  0.000   1.22  56.06   0.52      0   5854     95.4   1.60   0.00   1.00    4.00    4.00    4.00    1.85    1.30    1.15      0      0      0       0     135 21.18
 2013 222    97    81   21.0      5   2.21   2402   3079   3434   1467   5481  11488   2873  119.6  0.299   6007      6  0.000  0.000  0.000  0.142  0.000  0.000  0.000   1.19  57.18   0.52      0   6007     92.1   1.60   0.00   1.00    4.00    4.00    4.00    1.87    1.32    1.16      0      0      0       0     142 19.90
 2013 223    98    82   21.0      5   2.13   2402   3079   3597   1464   5481  11651   2873  125.2  0.309   6169      6  0.000  0.000  0.000  0.107  0.000  0.000  0.000   1.16  58.31   0.53      0   6169     88.8   1.60   0.00   1.00    3.99    4.00    4.00    1.87    1.31    1.16      0      0      0       0     149 19.45
 2013 224    99    83   21.0      5   2.05   2402   3079   3756   1474   5481  11810   2873  130.8  0.318   6329      6  0.000  0.000  0.000  0.063  0.000  0.000  0.000   1.14  59.36   0.54      0   6329     85.2   1.60   0.00   1.00    4.00    4.00    4.00    1.88    1.32    1.17      0      0      0       0     156 19.60
 2013 225   100    84   21.0      5   1.95   2402   3079   3904   1492   5481  11958   2873  135.9  0.326   6476      6  0.000  0.000  0.000  0.010  0.000  0.000  0.000   1.12  60.28   0.54      0   6476     81.2   1.60   0.00   1.00    4.00    4.00    4.00    1.90    1.34    1.19      0      0      0       0     164 20.15
 2013 226   101    85   21.0      5   1.85   2402   3079   4040   1528   5481  12093   2873  140.6  0.334   6612      6  0.000  0.000  0.000  0.000  0.000  0.000  0.000   1.10  61.10   0.55      0   6612     76.9   1.60   0.00   1.00    4.00    4.00    4.00    1.96    1.37    1.23      0      0      0       0     171 20.70
 2013 227   102    86   21.0      5   1.74   2402   3079   4179   1557   5481  12232   2873  145.5  0.342   6751      6  0.000  0.000  0.000  0.000  0.000  0.000  0.000   1.08  61.90   0.55      0   6751     72.4   1.60   0.00   1.00    4.00    4.00    4.00    2.00    1.40    1.25      0      0      0       0     179 20.55
 2013 228   103    87   21.0      5   1.63   2402   3062   4337   1549   5464  12373   2873  151.0  0.351   6909      6  0.000  0.000  0.000  0.000  0.000  0.000  0.000   1.05  62.77   0.56      0   6909     67.9   1.60   0.00   1.00    4.00    4.00    4.00    2.00    1.40    1.25      0      0      0       0     187 19.65
 2013 229   104    88   21.0      5   1.51   2402   3079   4487   1564   5481  12540   2873  156.2  0.358   7059      6  0.000  0.000  0.000  0.000  0.000  0.000  0.000   1.03  63.56   0.56      0   7059     63.0   1.60   0.00   1.00    4.00    4.00    4.00    2.02    1.42    1.26      0      0      0       0     194 20.05
 2013 230   105    89   21.0      5   1.39   2402   3079   4632   1579   5481  12686   2873  161.3  0.365   7204      6  0.000  0.000  0.000  0.000  0.000  0.000  0.000   1.01  64.30   0.57      0   7204     57.8   1.60   0.00   1.00    4.00    4.00    4.00    2.04    1.43    1.27      0      0      0       0     202 20.25
 2013 231   106    90   21.0      5   1.39   2402   3079   4632   1579   5481  12686   2873  161.3  0.365   7204      6  0.000  0.000  0.000  0.000  0.000  0.000  0.000   1.01  64.30   0.57      0   7204     57.8   1.60   0.00   1.00    4.00    4.00    4.00    2.06    1.44    1.28      0      0      0       0     202 18.75
 2013 232   107    91   21.0      5   1.39   2402   3079   4632   1579   5481  12686   2873  161.3  0.365   7204      6  0.000  0.000  0.000  0.016  0.000  0.000  0.000   1.01  64.30   0.57      0   7204     57.8   1.60   0.00   1.00    4.00    4.00    4.00    2.09    1.46    1.29      0      0      0       0     202 19.10
 2013 233   108    92   21.0      5   1.39   2402   3079   4632   1579   5481  12686   2873  161.3  0.365   7204      6  0.000  0.000  0.000  0.016  0.000  0.000  0.000   1.01  64.30   0.57      0   7204     57.8   1.60   0.00   1.00    4.00    4.00    4.00    2.11    1.47    1.30      0      0      0       0     202  0.00

*DSSAT Cropping System Model Ver. 4.6.1.000 -release      MAY 05, 2017; 11:09:13
                                                                                
*RUN   3        : P3                        MZCER046 3\000003    3              
 MODEL          : MZCER046 - Maize                                              
 EXPERIMENT     : 3\000003 BN Calibracion Cerete 2013                           
 DATA PATH      : C:\L\0\00000                                                  
 TREATMENT  3   : P3                        MZCER046                            
  
!                                                                                                                                                                                                                                      Root Dens. (cm/cm3) by soil depth (cm):
!                                                                                                                                                                                                                                      0-5    5-15   15-26   26-51   51-75  75-100
@YEAR DOY   DAS   DAP   L#SD   GSTD   LAID   LWAD   SWAD   GWAD   RWAD   VWAD   CWAD   G#AD   GWGD   HIAD   PWAD   P#AD   WSPD   WSGD   NSTD   EWSD  PST1A  PST2A   KSTD   LN%D   SH%D   HIPD   PWDD   PWTD     SLAD   CHTD   CWID   RDPD    RL1D    RL2D    RL3D    RL4D    RL5D    RL6D   CDAD   LDAD   SDAD   SNW0C   SNW1C  DTTD
 2013 157    16     0    0.0      0   0.00      0      0      0      0      0      0      0    0.0  0.000      0      0  0.000  0.000  0.000  0.000  0.000  0.000  0.000   0.00   0.00   0.00      0      0      0.0   0.00   0.00   0.05    0.00    0.00    0.00    0.00    0.00    0.00      0      0      0       0       0 20.12
 2013 158    17     1    0.0      0   0.00      0      0      0      0      0      0      0    0.0  0.000      0      0  0.000  0.000  0.000  0.000  0.000  0.000  0.000   0.00   0.00   0.00      0      0      0.0   0.00   0.00   0.08    0.00    0.00    0.00    0.00    0.00    0.00      0      0      0       0       0 20.80
 2013 159    18     2    0.0      0   0.00      0      0      0      0      0      0      0    0.0  0.000      0      0  0.000  0.000  0.000  0.000  0.000  0.000  0.000   0.00   0.00   0.00      0      0      0.0   0.00   0.00   0.11    0.00    0.00    0.00    0.00    0.00    0.00      0      0      0       0       0 20.61
 2013 160    19     3    0.0      0   0.00      0      0      0      0      0      0      0    0.0  0.000      0      0  0.000  0.000  0.000  0.000  0.000  0.000  0.000   0.00   0.00   0.00      0      0      0.0   0.00   0.00   0.14    0.00    0.00    0.00    0.00    0.00    0.00      0      0      0       0       0 21.84
 2013 161    20     4    0.0      0   0.00      0      0      0      0      0      0      0    0.0  0.000      0      0  0.000  0.000  0.000  0.000  0.000  0.000  0.000   0.00   0.00   0.00      0      0      0.0   0.00   0.00   0.17    0.00    0.00    0.00    0.00    0.00    0.00      0      0      0       0       0 19.97
 2013 162    21     5    2.0      1   0.00     12     12      0     12     25     25      0    0.0  0.000      0      0  0.000  0.000  0.012  0.000  0.000  0.000  0.000   4.40   0.00   0.00      0      0     36.7   0.00   0.00   0.20    0.25    0.12    0.03    0.00    0.00    0.00      0      0      0       0       0 21.32
 2013 163    22     6    2.0      1   0.01     12     12      0     13     25     25      0    0.0  0.000      0      0  0.000  0.000  0.007  0.000  0.000  0.000  0.000   4.40   0.00   0.00      0      0     73.6   0.00   0.00   0.22    0.25    0.13    0.03    0.00    0.00    0.00      0      0      0       0       0 20.58
 2013 164    23     7    3.0      1   0.01     12     12      0     14     25     25      0    0.0  0.000      0      0  0.000  0.000  0.000  0.000  0.000  0.000  0.000   4.40   0.00   0.00      0      0    116.4   0.01   0.00   0.24    0.26    0.13    0.03    0.00    0.00    0.00      0      0      0       0       0 20.78
 2013 165    24     8    4.0      1   0.03     12     12      0     15     25     25      0    0.0  0.000      0      0  0.000  0.000  0.000  0.000  0.000  0.000  0.000   4.40   0.00   0.00      0      0    263.3   0.02   0.00   0.26    0.27    0.14    0.04    0.00    0.00    0.00      0      0      0       0       0 21.02
 2013 166    25     9    4.0      1   0.05     17     12      0     16     29     29      0    0.0  0.000      0      0  0.000  0.000  0.000  0.000  0.000  0.000  0.000   3.76   0.00   0.00      0      0    323.5   0.03   0.00   0.28    0.28    0.15    0.05    0.00    0.00    0.00      0      0      0       0       0 20.40
 2013 167    26    10    5.0      1   0.08     27     12      0     18     40     40      0    0.0  0.000      0      0  0.000  0.000  0.000  0.000  0.000  0.000  0.000   3.03   0.00   0.00      0      0    292.7   0.04   0.00   0.29    0.29    0.16    0.06    0.00    0.00    0.00      0      0      0       0       0 20.70
 2013 168    27    11    5.0      1   0.11     41     12      0     20     53     53      0    0.0  0.000      0      0  0.000  0.000  0.000  0.000  0.000  0.000  0.000   3.01   0.00   0.00      0      0    269.1   0.06   0.00   0.30    0.31    0.17    0.07    0.00    0.00    0.00      0      0      0       0       0 21.28
 2013 169    28    12    6.0      1   0.14     54     12      0     28     67     67      0    0.0  0.000      0      0  0.000  0.211  0.000  0.000  0.000  0.000  0.000   3.18   0.00   0.00      0      0    253.9   0.07   0.00   0.32    0.38    0.23    0.12    0.00    0.00    0.00      0      0      0       0       0 21.35
 2013 170    29    13    6.0      1   0.17     71     12      0     37     83     83      0    0.0  0.000      0      0  0.000  0.092  0.000  0.000  0.000  0.000  0.000   3.14   0.00   0.00      0      0    240.4   0.09   0.00   0.33    0.46    0.29    0.17    0.01    0.00    0.00      0      0      0       0       0 19.24
 2013 171    30    14    7.0      2   0.21     85     12      0     39     98     98      0    0.0  0.000      0      0  0.000  0.000  0.000  0.000  0.000  0.000  0.000   3.29   0.00   0.00      0      0    247.3   0.11   0.00   0.34    0.47    0.31    0.18    0.01    0.00    0.00      0      0      0       0       1 20.61
 2013 172    31    15    7.0      2   0.25    105     12      0     49    117    117      0    0.0  0.000      0      0  0.031  0.355  0.007  0.000  0.000  0.000  0.000   3.25   0.00   0.00      0      0    237.0   0.13   0.00   0.37    0.56    0.38    0.24    0.02    0.00    0.00      0      0      0       0       1 20.52
 2013 173    32    16    8.0      2   0.27    119     12      0     60    132    132      0    0.0  0.000      0      0  0.408  0.606  0.000  0.000  0.000  0.000  0.000   3.42   0.00   0.00      0      0    226.7   0.15   0.00   0.39    0.64    0.45    0.31    0.03    0.00    0.00      0      0      0       0       1 21.60
 2013 174    33    17    8.0      2   0.32    145     12      0     65    158    158      0    0.0  0.000      0      0  0.082  0.389  0.000  0.000  0.000  0.000  0.000   3.17   0.00   0.00      0      0    218.4   0.17   0.00   0.42    0.68    0.48    0.33    0.03    0.00    0.00      0      0      0       0       1 21.33
 2013 175    34    18    9.0      2   0.37    176     12      0     70    189    189      0    0.0  0.000      0      0  0.000  0.000  0.000  0.000  0.000  0.000  0.000   3.78   0.00   0.00      0      0    211.3   0.20   0.00   0.44    0.71    0.52    0.36    0.04    0.00    0.00      0      0      0       0       2 19.46
 2013 176    35    19    9.0      2   0.42    207     12      0     75    219    219      0    0.0  0.000      0      0  0.000  0.000  0.000  0.035  0.000  0.000  0.000   3.74   0.00   0.00      0      0    205.3   0.23   0.00   0.47    0.75    0.55    0.38    0.05    0.00    0.00      0      0      0       0       2 19.24
 2013 177    36    20    9.0      2   0.53    271     12      0     97    283    283      0    0.0  0.000      0      0  0.000  0.000  0.000  0.000  0.000  0.000  0.000   3.69   0.00   0.00      0      0    194.2   0.28   0.00   0.49    0.91    0.70    0.49    0.08    0.00    0.00      0      0      0       0       2 20.97
 2013 178    37    21   10.0      3   0.64    348     13      0    103    361    361      0    0.0  0.000      0      0  0.000  0.000  0.000  0.000  0.000  0.000  0.000   3.61   0.00   0.00      0      0    184.2   0.35   0.00   0.52    0.94    0.73    0.52    0.09    0.00    0.00      0      0      0       0       3 22.19
 2013 179    38    22   10.0      3   0.75    424     14      0    108    438    438      0    0.0  0.000      0      0  0.000  0.000  0.000  0.000  0.000  0.000  0.000   3.54   0.00   0.00      0      0    177.7   0.41   0.00   0.54    0.97    0.76    0.55    0.10    0.00    0.00      0      0      0       0       3 19.00
 2013 180    39    23   11.0      3   0.86    496     17      0    143    513    513      0    0.0  0.000      0      0  0.000  0.000  0.000  0.169  0.000  0.000  0.000   3.48   0.00   0.00      0      0    172.7   0.46   0.00   0.56    1.18    0.97    0.74    0.16    0.01    0.00      0      0      0       0       4 19.25
 2013 181    40    24   11.0      3   0.98    588     22      0    175    610    610      0    0.0  0.000      0      0  0.000  0.000  0.000  0.067  0.000  0.000  0.000   3.43   0.00   0.00      0      0    167.4   0.53   0.00   0.59    1.37    1.14    0.91    0.21    0.02    0.00      0      0      0       0       5 19.60
 2013 182    41    25   12.0      3   1.12    692     33      0    187    725    725      0    0.0  0.000      0      0  0.000  0.000  0.000  0.219  0.000  0.000  0.000   3.37   0.00   0.00      0      0    162.3   0.61   0.00   0.61    1.44    1.21    0.98    0.23    0.03    0.00      0      0      0       0       6 21.25
 2013 183    42    26   12.0      3   1.27    802     49      0    230    851    851      0    0.0  0.000      0      0  0.000  0.000  0.000  0.161  0.000  0.000  0.000   3.31   0.00   0.00      0      0    157.9   0.68   0.00   0.64    1.68    1.43    1.19    0.30    0.06    0.00      0      0      0       0       6 20.20
 2013 184    43    27   13.0      3   1.43    928     74      0    291   1002   1002      0    0.0  0.000      0      0  0.000  0.000  0.000  0.086  0.000  0.000  0.000   3.25   0.00   0.00      0      0    153.6   0.77   0.00   0.66    2.03    1.76    1.49    0.39    0.11    0.00      0      0      0       0       8 20.55
 2013 185    44    28   13.0      3   1.59   1066    110      0    317   1176   1176      0    0.0  0.000      0      0  0.000  0.000  0.000  0.027  0.000  0.000  0.000   3.20   0.00   0.00      0      0    149.6   0.86   0.00   0.69    2.17    1.90    1.62    0.43    0.14    0.00      0      0      0       0       9 20.55
 2013 186    45    29   14.0      3   1.76   1202    155      0    365   1357   1357      0    0.0  0.000      0      0  0.000  0.000  0.000  0.000  0.000  0.000  0.000   3.15   0.00   0.00      0      0    146.2   0.95   0.00   0.71    2.44    2.15    1.84    0.51    0.19    0.00      0      0      0       0      11 19.25
 2013 187    46    30   14.0      3   1.93   1349    214      0    427   1563   1563      0    0.0  0.000      0      0  0.000  0.000  0.000  0.000  0.000  0.000  0.000   3.10   0.00   0.00      0      0    143.0   1.04   0.00   0.74    2.79    2.47    2.12    0.60    0.26    0.00      0      0      0       0      12 20.20
 2013 188    47    31   15.0      3   2.07   1473    274      0    436   1748   1748      0    0.0  0.000      0      0  0.000  0.000  0.000  0.000  0.000  0.000  0.000   3.04   0.00   0.00      0      0    140.5   1.12   0.00   0.76    2.83    2.51    2.16    0.61    0.28    0.00      0      0      0       0      15 20.75
 2013 189    48    32   15.0      3   2.25   1630    366      0    447   1996   1996      0    0.0  0.000      0      0  0.000  0.000  0.000  0.000  0.000  0.000  0.000   2.99   0.00   0.00      0      0    137.8   1.21   0.00   0.79    2.89    2.57    2.21    0.63    0.29    0.00      0      0      0       0      17 20.70
 2013 190    49    33   16.0      3   2.42   1789    476      0    490   2265   2265      0    0.0  0.000      0      0  0.000  0.000  0.000  0.000  0.000  0.000  0.000   2.94   0.00   0.00      0      0    135.4   1.30   0.00   0.81    3.11    2.78    2.39    0.69    0.34    0.01      0      0      0       0      19 20.65
 2013 191    50    34   16.0      3   2.58   1940    595      0    524   2535   2535      0    0.0  0.000      0      0  0.000  0.000  0.000  0.000  0.000  0.000  0.000   2.89   0.00   0.00      0      0    133.2   1.39   0.00   0.83    3.30    2.96    2.53    0.73    0.38    0.03      0      0      0       0      21 19.20
 2013 192    51    35   17.0      3   2.71   2053    698      0    534   2751   2751      0    0.0  0.000      0      0  0.000  0.000  0.000  0.005  0.000  0.000  0.000   2.85   0.00   0.00      0      0    131.8   1.46   0.00   0.86    3.34    3.01    2.57    0.75    0.40    0.03      0      0      0       0      24 19.30
 2013 193    52    36   17.0      3   2.87   2208    856      0    578   3064   3064      0    0.0  0.000      0      0  0.000  0.000  0.000  0.000  0.000  0.000  0.000   2.80   0.00   0.00      0      0    129.9   1.55   0.00   0.88    3.57    3.22    2.74    0.80    0.45    0.06      0      0      0       0      27 19.15
 2013 194    53    37   17.0      3   3.09   2424    974      0    594   3398   3398      0    0.0  0.000      0      0  0.000  0.000  0.000  0.000  0.000  0.000  0.000   2.76   0.00   0.00      0      0    127.6   1.60   0.00   0.91    3.65    3.30    2.80    0.82    0.47    0.07      0      0      0       0      30 20.10
 2013 195    54    38   18.0      3   3.26   2591   1172      0    611   3763   3768      0    0.0  0.000      5      0  0.000  0.000  0.000  0.000  0.000  0.000  0.000   2.71   0.00   0.00      0      5    125.9   1.60   0.00   0.93    3.74    3.38    2.86    0.85    0.49    0.09      0      0      0       0      33 19.75
 2013 196    55    39   18.0      3   3.36   2685   1321      0    622   4007   4015      0    0.0  0.000      8      0  0.000  0.000  0.000  0.000  0.000  0.000  0.000   2.67   0.00   0.00      0      8    125.0   1.60   0.00   0.95    3.80    3.43    2.89    0.86    0.50    0.10      0      0      0       0      36 20.50
 2013 197    56    40   19.0      3   3.44   2776   1486      0    655   4262   4282      0    0.0  0.000     20      0  0.049  0.366  0.000  0.000  0.000  0.000  0.000   2.63   0.00   0.00      0     20    123.9   1.60   0.00   0.98    3.96    3.60    2.99    0.90    0.54    0.14      0      0      0       0      39 20.75
 2013 198    57    41   19.0      3   3.52   2858   1659      0    667   4517   4547      0    0.0  0.000     30      0  0.000  0.000  0.000  0.000  0.000  0.000  0.000   2.58   0.00   0.01      0     30    123.2   1.60   0.00   1.00    4.00    3.65    3.03    0.91    0.55    0.16      0      0      0       0      42 19.40
 2013 199    58    42   20.0      3   3.59   2931   1822      0    677   4753   4796      0    0.0  0.000     44      0  0.000  0.000  0.000  0.000  0.000  0.000  0.000   2.54   0.00   0.01      0     44    122.6   1.60   0.00   1.00    4.00    3.70    3.05    0.93    0.56    0.17      0      0      0       0      45 19.75
 2013 200    59    43   20.0      3   3.69   3027   2035      0    701   5062   5146      0    0.0  0.000     84      0  0.000  0.000  0.000  0.000  0.000  0.000  0.000   2.52   0.00   0.02      0     84    121.9   1.60   0.00   1.00    4.00    3.82    3.12    0.96    0.59    0.20      0      0      0       0      49 18.90
 2013 201    60    44   21.0      3   3.77   3112   2230      0    716   5343   5472      0    0.0  0.000    129      0  0.000  0.000  0.000  0.000  0.000  0.000  0.000   2.47   0.00   0.02      0    129    121.2   1.60   0.00   1.00    4.00    3.89    3.16    0.98    0.60    0.22      0      0      0       0      52 20.60
[...]
 2014 190    48    32   15.0      3   1.89   1370    273      0    422   1643   1643      0    0.0  0.000      0      0  0.000  0.000  0.000  0.000  0.000  0.000  0.000   2.98   0.00   0.00      0      0    137.8   1.02   0.00   0.77    2.59    2.30    2.16    0.61    0.29    0.01      0      0      0       0      14 19.25
 2014 191    49    33   15.0      3   2.00   1469    340      0    512   1809   1809      0    0.0  0.000      0      0  0.000  0.000  0.000  0.306  0.000  0.000  0.000   2.94   0.00   0.00      0      0    136.2   1.08   0.00   0.80    3.03    2.74    2.59    0.74    0.39    0.02      0      0      0       0      16 19.10
 2014 192    50    34   16.0      3   2.08   1539    395      0    516   1934   1934      0    0.0  0.000      0      0  0.000  0.000  0.000  0.196  0.000  0.000  0.000   2.89   0.00   0.00      0      0    135.2   1.12   0.00   0.82    3.05    2.76    2.61    0.74    0.39    0.03      0      0      0       0      19 20.20
 2014 193    51    35   16.0      3   2.23   1670    513      0    527   2182   2182      0    0.0  0.000      0      0  0.000  0.000  0.000  0.027  0.000  0.000  0.000   2.84   0.00   0.00      0      0    133.3   1.20   0.00   0.84    3.10    2.82    2.66    0.76    0.41    0.03      0      0      0       0      21 20.60
 2014 194    52    36   17.0      3   2.39   1818    665      0    547   2483   2483      0    0.0  0.000      0      0  0.000  0.000  0.000  0.000  0.000  0.000  0.000   2.79   0.00   0.00      0      0    131.4   1.29   0.00   0.86    3.19    2.91    2.75    0.78    0.43    0.04      0      0      0       0      24 19.20
 2014 195    53    37   17.0      3   2.55   1970    801      0    560   2770   2773      0    0.0  0.000      2      0  0.000  0.000  0.000  0.000  0.000  0.000  0.000   2.75   0.00   0.00      0      2    129.6   1.38   0.00   0.88    3.25    2.97    2.81    0.80    0.44    0.05      0      0      0       0      27 19.20
 2014 196    54    38   18.0      3   2.68   2090    969      0    574   3058   3064      0    0.0  0.000      6      0  0.000  0.000  0.000  0.000  0.000  0.000  0.000   2.71   0.00   0.00      0      6    128.2   1.44   0.00   0.90    3.31    3.03    2.87    0.82    0.46    0.06      0      0      0       0      29 19.25
 2014 197    55    39   18.0      3   2.80   2207   1175      0    589   3381   3394      0    0.0  0.000     13      0  0.000  0.000  0.000  0.000  0.000  0.000  0.000   2.66   0.00   0.00      0     13    127.0   1.51   0.00   0.92    3.38    3.09    2.93    0.84    0.48    0.08      0      0      0       0      32 20.80
 2014 198    56    40   19.0      3   2.91   2310   1384      0    604   3694   3719      0    0.0  0.000     25      0  0.000  0.000  0.000  0.000  0.000  0.000  0.000   2.62   0.00   0.01      0     25    126.0   1.57   0.00   0.94    3.45    3.16    2.99    0.86    0.49    0.09      0      0      0       0      35 19.80
 2014 199    57    41   19.0      3   2.96   2358   1494      0    610   3852   3881      0    0.0  0.000     29      0  0.000  0.000  0.000  0.000  0.000  0.000  0.000   2.57   0.00   0.01      0     29    125.5   1.59   0.00   0.96    3.48    3.18    3.01    0.86    0.50    0.10      0      0      0       0      38 20.30
 2014 200    58    42   20.0      3   2.98   2411   1607      0    668   4018   4073      0    0.0  0.000     55      0  0.231  0.488  0.000  0.000  0.000  0.000  0.000   2.58   0.00   0.01      0     55    123.6   1.60   0.00   0.98    3.74    3.42    3.24    0.94    0.56    0.16      0      0      0       0      41 20.20
 2014 201    59    43   20.0      3   2.95   2445   1681      0    703   4126   4205      0    0.0  0.000     79      0  0.460  0.640  0.000  0.000  0.000  0.000  0.000   2.56   0.00   0.02      0     79    120.5   1.60   0.00   1.00    3.89    3.58    3.38    0.98    0.60    0.21      0      0      0       0      45 20.40
 2014 202    60    44   21.0      3   3.04   2534   1886      0    720   4421   4565      0    0.0  0.000    145      0  0.000  0.000  0.000  0.000  0.000  0.000  0.000   2.47   0.00   0.03      0    145    119.8   1.60   0.00   1.00    3.96    3.65    3.44    1.00    0.61    0.23      0      0      0       0      48 20.35
 2014 203    61    45   21.0      3   3.11   2605   2051      0    733   4656   4863      0    0.0  0.000    207      0  0.000  0.000  0.000  0.000  0.000  0.000  0.000   2.43   0.00   0.04      0    207    119.3   1.60   0.00   1.00    4.00    3.70    3.49    1.02    0.63    0.25      0      0      0       0      52 19.90
 2014 204    62    46   21.0      3   3.05   2632   2075      0    778   4707   4976      0    0.0  0.000    269      0  0.525  0.684  0.000  0.000  0.000  0.000  0.000   2.45   0.00   0.05      0    269    116.0   1.60   0.00   1.00    4.00    3.89    3.66    1.08    0.68    0.31      0      0      0       0      55 20.25
 2014 205    63    47   21.0      3   2.98   2653   2083      0    810   4736   5065      0    0.0  0.000    329      0  0.617  0.745  0.000  0.000  0.000  0.000  0.000   2.44   0.00   0.06      0    329    112.3   1.60   0.00   1.00    4.00    4.00    3.78    1.12    0.71    0.35      0      0      0       0      55 19.90
 2014 206    64    48   21.0      3   2.89   2670   2111      0    837   4781   5137      0    0.0  0.000    356      0  0.688  0.792  0.000  0.000  0.000  0.000  0.000   2.41   0.00   0.07      0    356    108.4   1.60   0.00   1.00    4.00    4.00    3.89    1.16    0.74    0.39      0      0      0       0      55 19.85
 2014 207    65    49   21.0      3   2.82   2689   2112      0    849   4801   5220      0    0.0  0.000    418      0  0.645  0.764  0.000  0.000  0.000  0.000  0.000   2.40   0.00   0.08      0    418    104.8   1.60   0.00   1.00    3.98    4.00    3.94    1.18    0.76    0.41      0      0      0       0      55 19.95
 2014 208    66    50   21.0      4   2.73   2659   2189      0    849   4848   5282      0    0.0  0.000    434      0  0.596  0.731  0.000  0.000  0.000  0.000  0.000   2.38   0.00   0.08      0    434    102.8   1.60   0.00   1.00    3.96    4.00    3.94    1.18    0.76    0.41      0      0      0       0      55 20.40
 2014 209    67    51   21.0      4   2.63   2627   2264      0    849   4890   5333      0    0.0  0.000    443      0  0.785  0.857  0.000  0.000  0.000  0.000  0.000   2.36   0.00   0.08      0    443    100.0   1.60   0.00   1.00    3.94    4.00    3.93    1.18    0.76    0.42      0      0      0       0      55 20.35
 2014 210    68    52   21.0      4   2.56   2591   2321      0    848   4912   5373      0    0.0  0.000    461      0  0.521  0.681  0.000  0.000  0.000  0.000  0.000   2.35   0.00   0.09      0    461     98.8   1.60   0.00   1.00    3.92    3.99    3.92    1.18    0.76    0.42      0      0      0       0      55 19.85
 2014 211    69    53   21.0      4   2.46   2553   2384      0    846   4937   5405      0    0.0  0.000    468      0  0.811  0.874  0.000  0.000  0.000  0.000  0.000   2.34   0.00   0.09      0    468     96.2   1.60   0.00   1.00    3.90    3.98    3.91    1.18    0.76    0.42      0      0      0       0      55 20.00
 2014 212    70    54   21.0      4   2.38   2512   2432      0    845   4944   5427      0    0.0  0.000    483      0  0.576  0.718  0.000  0.000  0.000  0.000  0.000   2.33   0.00   0.09      0    483     94.9   1.60   0.00   1.00    3.88    3.97    3.90    1.18    0.76    0.42      0      0      0       0      55 20.20
 2014 213    71    55   21.0      4   2.29   2468   2486      0    843   4954   5442      0    0.0  0.000    489      0  0.824  0.883  0.000  0.000  0.000  0.000  0.000   2.33   0.00   0.09      0    489     92.6   1.60   0.00   1.00    3.86    3.96    3.89    1.18    0.76    0.42      0      0      0       0      55 19.90
 2014 214    72    56   21.0      4   2.21   2421   2529      0    841   4950   5450      0    0.0  0.000    500      0  0.637  0.758  0.000  0.000  0.000  0.000  0.000   2.33   0.00   0.09      0    500     91.4   1.60   0.00   1.00    3.84    3.94    3.88    1.17    0.76    0.43      0      0      0       0      55 20.40
 2014 215    73    57   21.0      4   2.13   2371   2574      0    839   4945   5453      0    0.0  0.000    507      0  0.755  0.837  0.000  0.000  0.000  0.000  0.000   2.33   0.00   0.09      0    507     89.8   1.60   0.00   1.00    3.82    3.93    3.87    1.17    0.76    0.43      0      0      0       0      55 19.95
 2014 216    74    58   21.0      5   2.04   2371   2574     24    842   4945   5477    875    2.7  0.004    531      6  0.860  0.907  0.000  0.000  0.000  0.000  0.000   2.32   4.52   0.10      0    531     86.0   1.60   0.00   1.00    3.84    3.94    3.87    1.18    0.76    0.43      0      0      0       0      55 20.05
 2014 217    75    59   21.0      5   2.04   2371   2574     69    916   4945   5521    875    7.8  0.012    576      6  0.000  0.000  0.000  0.000  0.000  0.000  0.000   2.31  11.92   0.10      0    576     86.0   1.60   0.00   1.00    4.00    4.00    4.00    1.26    0.83    0.51      0      0      0       0      55 20.20
 2014 218    76    60   21.0      5   2.04   2371   2574    112    975   4945   5565    875   12.8  0.020    620      6  0.000  0.000  0.000  0.000  0.000  0.000  0.000   2.29  18.13   0.11      0    620     86.0   1.60   0.00   1.00    4.00    4.00    4.00    1.33    0.89    0.57      0      0      0       0      55 20.35
 2014 219    77    61   21.0      5   2.04   2371   2574    156   1016   4945   5608    875   17.8  0.028    663      6  0.000  0.000  0.000  0.000  0.000  0.000  0.000   2.28  23.48   0.12      0    663     86.0   1.60   0.00   1.00    4.00    4.00    4.00    1.39    0.93    0.61      0      0      0       0      55 20.40
 2014 220    78    62   21.0      5   2.04   2371   2574    202   1076   4945   5655    875   23.1  0.036    710      6  0.000  0.000  0.000  0.000  0.000  0.000  0.000   2.26  28.50   0.13      0    710     86.0   1.60   0.00   1.00    4.00    4.00    4.00    1.47    0.98    0.67      0      0      0       0      55 19.90
 2014 221    79    63   21.0      5   2.04   2371   2574    253   1128   4945   5706    875   28.9  0.044    760      6  0.000  0.000  0.000  0.362  0.000  0.000  0.000   2.24  33.29   0.13      0    760     86.0   1.60   0.00   1.00    4.00    4.00    4.00    1.55    1.03    0.71      0      0      0       0      55 19.25
 2014 222    80    64   21.0      5   2.04   2371   2574    305   1171   4945   5757    875   34.8  0.053    812      6  0.000  0.000  0.000  0.416  0.000  0.000  0.000   2.22  37.52   0.14      0    812     86.0   1.60   0.00   1.00    4.00    4.00    4.00    1.61    1.07    0.75      0      0      0       0      55 19.15
 2014 223    81    65   21.0      5   2.04   2371   2574    350   1242   4945   5803    875   40.0  0.060    857      6  0.000  0.000  0.000  0.385  0.000  0.000  0.000   2.21  40.82   0.15      0    857     86.0   1.60   0.00   1.00    4.00    4.00    4.00    1.72    1.14    0.81      0      0      0       0      55 20.10
 2014 224    82    66   21.0      5   2.04   2371   2574    394   1312   4945   5846    875   45.0  0.067    901      6  0.000  0.000  0.000  0.371  0.000  0.000  0.000   2.19  43.71   0.15      0    901     86.0   1.60   0.00   1.00    4.00    4.00    4.00    1.83    1.22    0.86      0      0      0       0      55 20.30
 2014 225    83    67   21.0      5   2.04   2371   2574    437   1363   4945   5889    875   49.9  0.074    944      6  0.000  0.000  0.000  0.324  0.000  0.000  0.000   2.18  46.25   0.16      0    944     86.0   1.60   0.00   1.00    4.00    4.00    4.00    1.91    1.27    0.90      0      0      0       0      55 20.50
 2014 226    84    68   21.0      5   2.04   2371   2574    484   1409   4945   5936    875   55.3  0.082    991      6  0.000  0.000  0.000  0.156  0.000  0.000  0.000   2.16  48.82   0.17      0    991     86.0   1.60   0.00   1.00    4.00    4.00    4.00    1.99    1.32    0.93      0      0      0       0      55 19.80
 2014 227    85    69   21.0      5   2.04   2371   2574    528   1486   4945   5981    875   60.3  0.088   1035      6  0.000  0.000  0.000  0.001  0.000  0.000  0.000   2.14  51.01   0.17      0   1035     86.0   1.60   0.00   1.00    4.00    4.00    4.00    2.12    1.41    0.99      0      0      0       0      55 20.25
 2014 228    86    70   21.0      5   2.04   2371   2574    572   1551   4945   6024    875   65.3  0.095   1079      6  0.000  0.000  0.000  0.000  0.000  0.000  0.000   2.13  52.99   0.18      0   1079     86.0   1.60   0.00   1.00    4.00    4.00    4.00    2.22    1.49    1.03      0      0      0       0      55 20.35
 2014 229    87    71   21.0      5   2.04   2371   2574    608   1620   4945   6060    875   69.5  0.100   1115      6  0.000  0.000  0.000  0.000  0.000  0.000  0.000   2.11  54.51   0.18      0   1115     86.0   1.60   0.00   1.00    4.00    4.00    4.00    2.33    1.57    1.07      0      0      0       0      55 21.37
 2014 230    88    72   21.0      5   2.04   2371   2574    651   1648   4945   6103    875   74.3  0.107   1158      6  0.000  0.000  0.000  0.000  0.000  0.000  0.000   2.10  56.19   0.19      0   1158     86.0   1.60   0.00   1.00    4.00    4.00    4.00    2.38    1.61    1.08      0      0      0       0      55 20.50
 2014 231    89    73   21.0      5   2.04   2371   2574    677   1667   4945   6130    875   77.4  0.111   1185      6  0.000  0.000  0.000  0.174  0.000  0.000  0.000   2.09  57.18   0.19      0   1185     86.0   1.60   0.00   1.00    4.00    4.00    4.00    2.41    1.63    1.09      0      0      0       0      55 22.46
 2014 232    90    74   21.0      5   2.04   2371   2574    722   1730   4945   6174    875   82.5  0.117   1229      6  0.000  0.000  0.000  0.158  0.000  0.000  0.000   2.07  58.73   0.20      0   1229     86.0   1.60   0.00   1.00    4.00    4.00    4.00    2.51    1.71    1.13      0      0      0       0      55 20.25
 2014 233    91    75   21.0      5   2.04   2371   2574    768   1784   4945   6221    875   87.8  0.124   1276      6  0.000  0.000  0.000  0.067  0.000  0.000  0.000   2.06  60.23   0.21      0   1276     86.0   1.60   0.00   1.00    4.00    4.00    4.00    2.60    1.78    1.18      0      0      0       0      55 19.90
 2014 234    92    76   21.0      5   2.04   2371   2574    811   1831   4945   6264    875   92.7  0.129   1318      6  0.000  0.000  0.000  0.172  0.000  0.000  0.000   2.04  61.52   0.21      0   1318     86.0   1.60   0.00   1.00    4.00    4.00    4.00    2.67    1.83    1.23      0      0      0       0      55 20.50
 2014 235    93    77   21.0      5   2.04   2371   2574    858   1870   4945   6311    875   98.1  0.136   1366      6  0.000  0.000  0.000  0.189  0.000  0.000  0.000   2.02  62.85   0.22      0   1366     86.0   1.60   0.00   1.00    4.00    4.00    4.00    2.74    1.88    1.26      0      0      0       0      55 19.80
 2014 236    94    78   21.0      5   2.04   2371   2574    901   1920   4945   6354    875  103.0  0.142   1409      6  0.000  0.000  0.000  0.197  0.000  0.000  0.000   2.01  63.99   0.22      0   1409     86.0   1.60   0.00   1.00    4.00    4.00    4.00    2.82    1.95    1.32      0      0      0       0      55 20.45
 2014 237    95    79   21.0      5   2.04   2371   2574    948   1958   4945   6401    875  108.3  0.148   1455      6  0.000  0.000  0.000  0.138  0.000  0.000  0.000   1.99  65.14   0.23      0   1455     86.0   1.60   0.00   1.00    4.00    4.00    4.00    2.88    2.00    1.37      0      0      0       0      55 19.90
 2014 238    96    80   21.0      5   2.04   2371   2574   1000   1984   4945   6453    875  114.3  0.155   1508      6  0.000  0.000  0.000  0.063  0.000  0.000  0.000   1.97  66.35   0.23      0   1508     86.0   1.60   0.00   1.00    4.00    4.00    4.00    2.92    2.03    1.40      0      0      0       0      55 18.15
 2014 239    97    81   21.0      5   2.04   2371   2574   1042   2034   4945   6494    875  119.0  0.160   1549      6  0.000  0.000  0.000  0.011  0.000  0.000  0.000   1.96  67.25   0.24      0   1549     86.0   1.60   0.00   1.00    4.00    4.00    4.00    3.00    2.09    1.46      0      0      0       0      55 20.70
 2014 240    98    82   21.0      5   2.04   2371   2574   1089   2094   4945   6542    875  124.5  0.167   1597      6  0.000  0.000  0.000  0.000  0.000  0.000  0.000   1.94  68.23   0.24      0   1597     86.0   1.60   0.00   1.00    4.00    4.00    4.00    3.10    2.17    1.53      0      0      0       0      55 19.75
 2014 241    99    83   21.0      5   2.02   2371   2574   1136   2159   4945   6589    875  129.8  0.172   1643      6  0.000  0.000  0.000  0.000  0.000  0.000  0.000   1.92  69.13   0.25      0   1643     85.1   1.60   0.00   1.00    4.00    4.00    4.00    3.20    2.25    1.60      0      0      0       0      55 19.90
 2014 242   100    84   21.0      5   1.92   2371   2574   1181   2227   4945   6634    875  135.0  0.178   1689      6  0.000  0.000  0.000  0.000  0.000  0.000  0.000   1.91  69.96   0.25      0   1689     81.2   1.60   0.00   1.00    4.00    4.00    4.00    3.30    2.34    1.68      0      0      0       0      55 20.10
 2014 243   101    85   21.0      5   1.83   2371   2574   1231   2285   4945   6683    875  140.6  0.184   1738      6  0.000  0.000  0.000  0.000  0.000  0.000  0.000   1.89  70.81   0.26      0   1738     77.1   1.60   0.00   1.00    4.00    4.00    4.00    3.39    2.41    1.75      0      0      0       0      55 19.45
 2014 244   102    86   21.0      5   1.72   2371   2574   1276   2343   4945   6728    875  145.8  0.190   1783      6  0.000  0.000  0.000  0.000  0.000  0.000  0.000   1.88  71.55   0.27      0   1783     72.7   1.60   0.00   1.00    4.00    4.00    4.00    3.48    2.48    1.82      0      0      0       0      55 20.15
 2014 245   103    87   21.0      5   1.61   2371   2574   1320   2353   4945   6773    875  150.9  0.195   1828      6  0.000  0.000  0.000  0.007  0.000  0.000  0.000   1.86  72.24   0.27      0   1828     68.0   1.60   0.00   1.00    4.00    4.00    4.00    3.50    2.50    1.83      0      0      0       0      55 20.20
 2014 246   104    88   21.0      5   1.50   2371   2574   1366   2394   4945   6819    875  156.1  0.200   1873      6  0.000  0.000  0.000  0.000  0.000  0.000  0.000   1.84  72.92   0.27      0   1873     63.1   1.60   0.00   1.00    4.00    4.00    4.00    3.56    2.55    1.88      0      0      0       0      55 20.05
 2014 247   105    89   21.0      5   1.37   2371   2574   1407   2414   4945   6859    875  160.7  0.205   1914      6  0.000  0.000  0.000  0.000  0.000  0.000  0.000   1.83  73.50   0.28      0   1914     57.7   1.60   0.00   1.00    4.00    4.00    4.00    3.59    2.58    1.91      0      0      0       0      55 20.79
 2014 248   106    90   21.0      5   1.37   2371   2574   1407   2414   4945   6859    875  160.7  0.205   1914      6  0.000  0.000  0.000  0.000  0.000  0.000  0.000   1.83  73.50   0.28      0   1914     57.7   1.60   0.00   1.00    4.00    4.00    4.00    3.62    2.60    1.93      0      0      0       0      55 20.55
 2014 249   107    91   21.0      5   1.37   2371   2574   1407   2414   4945   6859    875  160.7  0.205   1914      6  0.000  0.000  0.000  0.098  0.000  0.000  0.000   1.83  73.50   0.28      0   1914     57.7   1.60   0.00   1.00    4.00    4.00    4.00    3.66    2.63    1.96      0      0      0       0      55 19.90
 2014 250   108    92   21.0      5   1.37   2371   2574   1407   2414   4945   6859    875  160.7  0.205   1914      6  0.000  0.000  0.000  0.098  0.000  0.000  0.000   1.83  73.50   0.28      0   1914     57.7   1.60   0.00   1.00    4.00    4.00    4.00    3.69    2.66    1.98      0      0      0       0      55  0.00
