*SIMULATION OVERVIEW FILE

*DSSAT Cropping System Model Ver. 4.6.1.000 -release      MAY 05, 2017; 11:09:10
                                                                                
*RUN   1        : P1                        MZCER046 0\000000    1              
 MODEL          : MZCER046 - Maize                                              
 EXPERIMENT     : 0\000000 BN Calibracion Cerete 2013                           
 DATA PATH      : C:\L\0\00000                                                  
 TREATMENT  1   : P1                        MZCER046                            
                                                                                
                                                                                
 CROP           : Maize            CULTIVAR : PIO 30F35HRB_    ECOTYPE :IB0001  
 STARTING DATE  : APR 22 2013                                                   
 PLANTING DATE  : MAY  7 2013        PLANTS/m2 :  6.2     ROW SPACING :  80.cm  
 WEATHER        : CCCR   2013                                                   
 SOIL           : CCCERE2017     TEXTURE : CL    -   Suelo Cerete Calibracio    
 SOIL INITIAL C : DEPTH:100cm EXTR. H2O: 82.9mm  NO3: 37.9kg/ha  NH4: 67.2kg/ha 
 WATER BALANCE  : RAINFED                                                       
 IRRIGATION     : NOT IRRIGATED                                                 
 NITROGEN BAL.  : SOIL-N & N-UPTAKE SIMULATION; NO N-FIXATION                   
 N-FERTILIZER   :      142 kg/ha IN     5 APPLICATIONS                          
 RESIDUE/MANURE : INITIAL :     0 kg/ha ;       0 kg/ha IN     0 APPLICATIONS   
 ENVIRONM. OPT. : DAYL=    0.00  SRAD=    0.00  TMAX=    0.00  TMIN=    0.00    
                  RAIN=    0.00  CO2 =    0.00  DEW =    0.00  WIND=    0.00    
 SIMULATION OPT : WATER   :Y  NITROGEN:Y  N-FIX:N  PHOSPH :N  PESTS  :N         
                  PHOTO   :C  ET      :R  INFIL:S  HYDROL :R  SOM    :G         
                  CO2 396ppm  NSWIT   :1  EVAP :S  SOIL   :2  STEMP  :D         
 MANAGEMENT OPT : PLANTING:R  IRRIG   :N  FERT :D  RESIDUE:R  HARVEST:M         
                  WEATHER :M  TILLAGE :N                                        
                                                                                
*SUMMARY OF SOIL AND GENETIC INPUT PARAMETERS                                   
                                                                                
   SOIL LOWER UPPER   SAT  EXTR  INIT   ROOT   BULK     pH    NO3    NH4    ORG 
  DEPTH LIMIT LIMIT    SW    SW    SW   DIST   DENS                          C  
   cm   cm3/cm3    cm3/cm3    cm3/cm3         g/cm3         ugN/g  ugN/g     %  
------------------------------------------------------------------------------- 
  0-  5 0.313 0.407 0.502 0.094 0.424   1.00   1.53   7.00   3.78   4.42   1.32 
  5- 15 0.313 0.407 0.502 0.094 0.424   1.00   1.53   7.00   3.78   4.42   1.32 
 15- 26 0.313 0.407 0.502 0.094 0.424   1.00   1.53   7.00   3.78   4.42   1.32 
 26- 51 0.318 0.397 0.511 0.079 0.419   0.37   1.49   7.60   2.27   4.49   0.44 
 51- 75 0.318 0.397 0.511 0.079 0.418   0.37   1.49   7.60   1.98   4.50   0.44 
 75-100 0.318 0.397 0.511 0.079 0.418   0.37   1.49   7.60   1.98   4.50   0.44 
                                                                                
TOT-100  31.7  40.0  50.9   8.3  42.0  <--cm   -  kg/ha-->   37.9   67.2 101024 
SOIL ALBEDO    : 0.09      EVAPORATION LIMIT : 6.00         MIN. FACTOR  : 1.00 
RUNOFF CURVE # :73.00      DRAINAGE RATE     : 0.05         FERT. FACTOR : 1.00 
                                                                                
 Maize      CULTIVAR :000000-PIO 30F35HRB_      ECOTYPE :IB0001                 
 P1     : 180.00  P2     : 0.3000  P5     : 850.00                              
 G2     : 800.00  G3     :  6.000  PHINT  : 40.000                              


*SIMULATED CROP AND SOIL STATUS AT MAIN DEVELOPMENT STAGES

 RUN NO.     1     P1                      

        CROP GROWTH     BIOMASS         LEAF   CROP N     STRESS      STRESS                                           
   DATE  AGE STAGE        kg/ha    LAI   NUM  kg/ha  %   H2O  Nitr Phos1 Phos2  RSTG                                   
 ------  --- ----------   -----  -----  ----  ---  ---  ----  ----  ----  ----  ----                                   
 22 APR    0 Start Sim        0   0.00   0.0    0  0.0  0.00  0.00  0.00  0.00     7
  7 MAY    0 Sowing           0   0.00   0.0    0  0.0  0.00  0.00  0.00  0.00     8
  8 MAY    1 Germinate        0   0.00   0.0    0  0.0  0.00  0.00  0.00  0.00     9
 12 MAY    5 Emergence       25   0.01   2.3    1  4.4  0.00  0.01  0.00  0.00     1
 21 MAY   14 End Juveni     113   0.24   7.6    4  3.2  0.00  0.00  0.00  0.00     2
 28 MAY   21 Floral Ini     464   0.79  11.2   17  3.6  0.04  0.00  0.00  0.00     3
 26 JUN   50 75% Silkin    6694   3.78  23.3  137  2.0  0.03  0.00  0.00  0.00     4
  4 JUL   58 Beg Gr Fil    8664   3.58  23.3  137  1.6  0.00  0.00  0.00  0.00     5
  5 AUG   90 End Gr Fil   13418   1.58  23.3  148  1.1  0.02  0.00  0.00  0.00     6
  7 AUG   92 Maturity     13418   1.58  23.3  148  1.1  0.00  0.00  0.00  0.00    10
  7 AUG   92 Harvest      13418   1.58  23.3  148  1.1  0.00  0.00  0.00  0.00    10


*MAIN GROWTH AND DEVELOPMENT VARIABLES

@     VARIABLE                                         SIMULATED     MEASURED
      --------                                         ---------     --------
      Anthesis day (dap)                                      50           40
      Physiological maturity day (dap)                        92          113
      Yield at harvest maturity (kg [dm]/ha)                4898         9603
      Number at maturity (no/m2)                            2960         3233
      Unit wt at maturity (g [dm]/unit)                   0.1655        0.308
      Number at maturity (no/unit)                         477.4          517
      Tops weight at maturity (kg [dm]/ha)                 13418        21182
      By-product produced (stalk) at maturity (kg[dm]/ha    8584         8259
      Leaf area index, maximum                              3.94         4.93
      Harvest index at maturity                            0.365         0.45
      Grain N at maturity (kg/ha)                             87          -99
      Tops N at maturity (kg/ha)                             148          -99
      Stem N at maturity (kg/ha)                              61          -99
      Grain N at maturity (%)                                1.8          -99
      Tops weight at anthesis (kg [dm]/ha)                  6326          -99
      Tops N at anthesis (kg/ha)                             131          -99
      Leaf number per stem at maturity                     23.25           19
      Emergence day (dap)                                      5          -99


*ENVIRONMENTAL AND STRESS FACTORS

 |-----Development Phase------|--------------------------------------Environment--------------------------------------|-----------------Stress-----------------|
                              |---------------Average--------------|-----Cumulative-----|--------Count of days--------|          (0=Min, 1=Max Stress)         |
                         Time  Temp  Temp  Temp Solar Photop                Evapo    Pot TMIN TMIN TMAX TMAX TMAX RAIN|----Water----|---Nitrogen--|-Phosphorus-|
                         Span   Max   Min  Mean   Rad  [day]    CO2   Rain  Trans     ET   <    <    >    >    >    >   Photo         Photo         Photo
                         days    øC    øC    øC MJ/m2     hr    ppm     mm     mm     mm  0øC  2øC 30øC 32øC 34øC  0mm  synth Growth  synth Growth  synth Growth
----------------------------------------------------------------------------------------------------------------------------------------------------------------
 Emergence-End Juvenile     9  32.5  25.2  28.9  14.5  24.00  396.1   30.9   38.1   39.1    0    0    9    7    1    4  0.000  0.000  0.002  0.005  0.000  0.000
 End Juvenil-Floral Init    7  32.3  24.0  28.2  14.7  24.00  396.2   12.4   29.5   29.5    0    0    7    5    0    5  0.000  0.038  0.001  0.004  0.000  0.000
 Floral Init-End Lf Grow   29  32.0  24.2  28.1  16.2  24.00  396.3  137.3  119.5  121.1    0    0   29    8    0   18  0.008  0.033  0.000  0.000  0.000  0.000
 End Lf Grth-Beg Grn Fil    8  32.5  23.7  28.1  18.2  24.00  396.4   85.7   36.2   36.4    0    0    8    4    1    4  0.000  0.000  0.000  0.000  0.000  0.000
 Grain Filling Phase       32  32.4  23.7  28.1  18.5  24.00  396.5  116.3  148.8  149.8    0    0   32   21    1   15  0.002  0.018  0.000  0.000  0.000  0.000


 Planting to Harvest       92  32.3  24.0  28.2  16.9  24.00  396.3  402.0  402.2  408.3    0    0   92   50    3   49  0.003  0.020  0.000  0.001  0.000  0.000
----------------------------------------------------------------------------------------------------------------------------------------------------------------


*Resource Productivity
 Growing season length:  92 days 

 Precipitation during growing season       402.0 mm[rain]
   Dry Matter Productivity                  3.34 kg[DM]/m3[rain]          =   33.4 kg[DM]/ha per mm[rain]
   Yield Productivity                       1.22 kg[grain yield]/m3[rain] =   12.2 kg[yield]/ha per mm[rain]

 Evapotranspiration during growing season  402.2 mm[ET]
   Dry Matter Productivity                  3.34 kg[DM]/m3[ET]            =   33.4 kg[DM]/ha per mm[ET]
   Yield Productivity                       1.22 kg[grain yield]/m3[ET]   =   12.2 kg[yield]/ha per mm[ET]

 Transpiration during growing season       268.0 mm[EP]
   Dry Matter Productivity                  5.01 kg[DM]/m3[EP]            =   50.1 kg[DM]/ha per mm[EP]
   Yield Productivity                       1.83 kg[grain yield]/m3[EP]   =   18.3 kg[yield]/ha per mm[EP]

 N applied during growing season            142. kg[N applied]/ha
   Dry Matter Productivity                  94.5 kg[DM]/kg[N applied]
   Yield Productivity                       34.5 kg[yield]/kg[N applied]

 N uptake during growing season              170 kg[N uptake]/ha
   Dry Matter Productivity                  78.9 kg[DM]/kg[N uptake]
   Yield Productivity                       28.8 kg[yield]/kg[N uptake]

--------------------------------------------------------------------------------------------------------------

                     Maize YIELD :     4898 kg/ha    [Dry weight] 

**************************************************************************************************************

*DSSAT Cropping System Model Ver. 4.6.1.000 -release      MAY 05, 2017; 11:09:10
                                                                                
*RUN   2        : P2                        MZCER046 0\000000    2              
 MODEL          : MZCER046 - Maize                                              
 EXPERIMENT     : 0\000000 BN Calibracion Cerete 2013                           
 DATA PATH      : C:\L\0\00000                                                  
 TREATMENT  2   : P2                        MZCER046                            
                                                                                
                                                                                
 CROP           : Maize            CULTIVAR : PIO 30F35HRB_    ECOTYPE :IB0001  
 STARTING DATE  : MAY  6 2013                                                   
 PLANTING DATE  : MAY 21 2013        PLANTS/m2 :  6.2     ROW SPACING :  80.cm  
 WEATHER        : CCCR   2013                                                   
 SOIL           : CCCERE2017     TEXTURE : CL    -   Suelo Cerete Calibracio    
 SOIL INITIAL C : DEPTH:100cm EXTR. H2O: 82.9mm  NO3: 37.9kg/ha  NH4: 67.2kg/ha 
 WATER BALANCE  : RAINFED                                                       
 IRRIGATION     : NOT IRRIGATED                                                 
 NITROGEN BAL.  : SOIL-N & N-UPTAKE SIMULATION; NO N-FIXATION                   
 N-FERTILIZER   :      142 kg/ha IN     5 APPLICATIONS                          
 RESIDUE/MANURE : INITIAL :     0 kg/ha ;       0 kg/ha IN     0 APPLICATIONS   
 ENVIRONM. OPT. : DAYL=    0.00  SRAD=    0.00  TMAX=    0.00  TMIN=    0.00    
                  RAIN=    0.00  CO2 =    0.00  DEW =    0.00  WIND=    0.00    
 SIMULATION OPT : WATER   :Y  NITROGEN:Y  N-FIX:N  PHOSPH :N  PESTS  :N         
                  PHOTO   :C  ET      :R  INFIL:S  HYDROL :R  SOM    :G         
                  CO2 396ppm  NSWIT   :1  EVAP :S  SOIL   :2  STEMP  :D         
 MANAGEMENT OPT : PLANTING:R  IRRIG   :N  FERT :D  RESIDUE:R  HARVEST:M         
                  WEATHER :M  TILLAGE :N                                        
                                                                                
*SUMMARY OF SOIL AND GENETIC INPUT PARAMETERS                                   
                                                                                
   SOIL LOWER UPPER   SAT  EXTR  INIT   ROOT   BULK     pH    NO3    NH4    ORG 
  DEPTH LIMIT LIMIT    SW    SW    SW   DIST   DENS                          C  
   cm   cm3/cm3    cm3/cm3    cm3/cm3         g/cm3         ugN/g  ugN/g     %  
------------------------------------------------------------------------------- 
  0-  5 0.313 0.407 0.502 0.094 0.424   1.00   1.53   7.00   3.78   4.42   1.32 
  5- 15 0.313 0.407 0.502 0.094 0.424   1.00   1.53   7.00   3.78   4.42   1.32 
 15- 26 0.313 0.407 0.502 0.094 0.424   1.00   1.53   7.00   3.78   4.42   1.32 
 26- 51 0.318 0.397 0.511 0.079 0.419   0.37   1.49   7.60   2.27   4.49   0.44 
 51- 75 0.318 0.397 0.511 0.079 0.418   0.37   1.49   7.60   1.98   4.50   0.44 
 75-100 0.318 0.397 0.511 0.079 0.418   0.37   1.49   7.60   1.98   4.50   0.44 
                                                                                
TOT-100  31.7  40.0  50.9   8.3  42.0  <--cm   -  kg/ha-->   37.9   67.2 101024 
SOIL ALBEDO    : 0.09      EVAPORATION LIMIT : 6.00         MIN. FACTOR  : 1.00 
RUNOFF CURVE # :73.00      DRAINAGE RATE     : 0.05         FERT. FACTOR : 1.00 
                                                                                
 Maize      CULTIVAR :000000-PIO 30F35HRB_      ECOTYPE :IB0001                 
 P1     : 180.00  P2     : 0.3000  P5     : 850.00                              
 G2     : 800.00  G3     :  6.000  PHINT  : 40.000                              


*SIMULATED CROP AND SOIL STATUS AT MAIN DEVELOPMENT STAGES

 RUN NO.     2     P2                      

        CROP GROWTH     BIOMASS         LEAF   CROP N     STRESS      STRESS                                           
   DATE  AGE STAGE        kg/ha    LAI   NUM  kg/ha  %   H2O  Nitr Phos1 Phos2  RSTG                                   
 ------  --- ----------   -----  -----  ----  ---  ---  ----  ----  ----  ----  ----                                   
  6 MAY    0 Start Sim        0   0.00   0.0    0  0.0  0.00  0.00  0.00  0.00     7
 21 MAY    0 Sowing           0   0.00   0.0    0  0.0  0.00  0.00  0.00  0.00     8
 22 MAY    1 Germinate        0   0.00   0.0    0  0.0  0.00  0.00  0.00  0.00     9
 26 MAY    5 Emergence       25   0.00   2.3    1  4.4  0.00  0.01  0.00  0.00     1
  4 JUN   14 End Juveni     117   0.25   7.4    4  3.4  0.00  0.00  0.00  0.00     2
 11 JUN   21 Floral Ini     439   0.75  11.0   16  3.6  0.00  0.00  0.00  0.00     3
  9 JUL   49 75% Silkin    6257   3.32  22.6  125  2.0  0.12  0.00  0.00  0.00     4
 18 JUL   58 Beg Gr Fil    8589   3.18  22.6  125  1.5  0.06  0.00  0.00  0.00     5
 18 AUG   89 End Gr Fil   13057   1.48  22.6  139  1.1  0.05  0.00  0.00  0.00     6
 21 AUG   92 Maturity     13057   1.48  22.6  139  1.1  0.00  0.00  0.00  0.00    10
 21 AUG   92 Harvest      13057   1.48  22.6  139  1.1  0.00  0.00  0.00  0.00    10


*MAIN GROWTH AND DEVELOPMENT VARIABLES

@     VARIABLE                                         SIMULATED     MEASURED
      --------                                         ---------     --------
      Anthesis day (dap)                                      49           52
      Physiological maturity day (dap)                        92          112
      Yield at harvest maturity (kg [dm]/ha)                4629          -99
      Number at maturity (no/m2)                            2961         2739
      Unit wt at maturity (g [dm]/unit)                   0.1564        0.286
      Number at maturity (no/unit)                         477.6          438
      Tops weight at maturity (kg [dm]/ha)                 13057          -99
      By-product produced (stalk) at maturity (kg[dm]/ha    8486          -99
      Leaf area index, maximum                              3.32          -99
      Harvest index at maturity                            0.355          -99
      Grain N at maturity (kg/ha)                             82          -99
      Tops N at maturity (kg/ha)                             139          -99
      Stem N at maturity (kg/ha)                              57          -99
      Grain N at maturity (%)                                1.8          -99
      Tops weight at anthesis (kg [dm]/ha)                  5905          -99
      Tops N at anthesis (kg/ha)                             122          -99
      Leaf number per stem at maturity                     22.62           18
      Emergence day (dap)                                      5          -99


*ENVIRONMENTAL AND STRESS FACTORS

 |-----Development Phase------|--------------------------------------Environment--------------------------------------|-----------------Stress-----------------|
                              |---------------Average--------------|-----Cumulative-----|--------Count of days--------|          (0=Min, 1=Max Stress)         |
                         Time  Temp  Temp  Temp Solar Photop                Evapo    Pot TMIN TMIN TMAX TMAX TMAX RAIN|----Water----|---Nitrogen--|-Phosphorus-|
                         Span   Max   Min  Mean   Rad  [day]    CO2   Rain  Trans     ET   <    <    >    >    >    >   Photo         Photo         Photo
                         days    øC    øC    øC MJ/m2     hr    ppm     mm     mm     mm  0øC  2øC 30øC 32øC 34øC  0mm  synth Growth  synth Growth  synth Growth
----------------------------------------------------------------------------------------------------------------------------------------------------------------
 Emergence-End Juvenile     9  32.0  23.7  27.9  18.2  24.00  396.2   27.6   48.3   48.4    0    0    9    4    0    7  0.000  0.000  0.002  0.005  0.000  0.000
 End Juvenil-Floral Init    7  32.2  24.1  28.1  15.7  24.00  396.2   89.5   31.6   31.6    0    0    7    2    0    5  0.000  0.000  0.001  0.002  0.000  0.000
 Floral Init-End Lf Grow   28  32.1  24.3  28.2  16.9  24.00  396.4  117.7  115.1  122.5    0    0   28   10    1   14  0.073  0.125  0.000  0.000  0.000  0.000
 End Lf Grth-Beg Grn Fil    9  32.1  23.6  27.9  19.3  24.00  396.5   32.3   42.3   43.5    0    0    9    4    0    3  0.024  0.063  0.000  0.000  0.000  0.000
 Grain Filling Phase       31  32.7  23.6  28.2  16.9  24.00  396.6  146.2  129.0  133.9    0    0   31   24    2   13  0.030  0.047  0.000  0.000  0.000  0.000


 Planting to Harvest       92  32.3  23.9  28.1  16.9  24.00  396.4  438.9  398.2  411.7    0    0   92   48    3   46  0.035  0.060  0.000  0.001  0.000  0.000
----------------------------------------------------------------------------------------------------------------------------------------------------------------


*Resource Productivity
 Growing season length:  92 days 

 Precipitation during growing season       438.9 mm[rain]
   Dry Matter Productivity                  2.98 kg[DM]/m3[rain]          =   29.8 kg[DM]/ha per mm[rain]
   Yield Productivity                       1.05 kg[grain yield]/m3[rain] =   10.5 kg[yield]/ha per mm[rain]

 Evapotranspiration during growing season  398.2 mm[ET]
   Dry Matter Productivity                  3.28 kg[DM]/m3[ET]            =   32.8 kg[DM]/ha per mm[ET]
   Yield Productivity                       1.16 kg[grain yield]/m3[ET]   =   11.6 kg[yield]/ha per mm[ET]

 Transpiration during growing season       246.7 mm[EP]
   Dry Matter Productivity                  5.29 kg[DM]/m3[EP]            =   52.9 kg[DM]/ha per mm[EP]
   Yield Productivity                       1.88 kg[grain yield]/m3[EP]   =   18.8 kg[yield]/ha per mm[EP]

 N applied during growing season            142. kg[N applied]/ha
   Dry Matter Productivity                  92.0 kg[DM]/kg[N applied]
   Yield Productivity                       32.6 kg[yield]/kg[N applied]

 N uptake during growing season              156 kg[N uptake]/ha
   Dry Matter Productivity                  83.7 kg[DM]/kg[N uptake]
   Yield Productivity                       29.7 kg[yield]/kg[N uptake]

--------------------------------------------------------------------------------------------------------------

                     Maize YIELD :     4629 kg/ha    [Dry weight] 

**************************************************************************************************************

*DSSAT Cropping System Model Ver. 4.6.1.000 -release      MAY 05, 2017; 11:09:10
                                                                                
*RUN   3        : P3                        MZCER046 0\000000    3              
 MODEL          : MZCER046 - Maize                                              
 EXPERIMENT     : 0\000000 BN Calibracion Cerete 2013                           
 DATA PATH      : C:\L\0\00000                                                  
 TREATMENT  3   : P3                        MZCER046                            
                                                                                
                                                                                
 CROP           : Maize            CULTIVAR : PIO 30F35HRB_    ECOTYPE :IB0001  
 STARTING DATE  : MAY 22 2013                                                   
 PLANTING DATE  : JUN  6 2013        PLANTS/m2 :  6.2     ROW SPACING :  80.cm  
 WEATHER        : CCCR   2013                                                   
 SOIL           : CCCERE2017     TEXTURE : CL    -   Suelo Cerete Calibracio    
 SOIL INITIAL C : DEPTH:100cm EXTR. H2O: 82.9mm  NO3: 37.9kg/ha  NH4: 67.2kg/ha 
 WATER BALANCE  : RAINFED                                                       
 IRRIGATION     : NOT IRRIGATED                                                 
 NITROGEN BAL.  : SOIL-N & N-UPTAKE SIMULATION; NO N-FIXATION                   
 N-FERTILIZER   :      142 kg/ha IN     5 APPLICATIONS                          
 RESIDUE/MANURE : INITIAL :     0 kg/ha ;       0 kg/ha IN     0 APPLICATIONS   
 ENVIRONM. OPT. : DAYL=    0.00  SRAD=    0.00  TMAX=    0.00  TMIN=    0.00    
                  RAIN=    0.00  CO2 =    0.00  DEW =    0.00  WIND=    0.00    
 SIMULATION OPT : WATER   :Y  NITROGEN:Y  N-FIX:N  PHOSPH :N  PESTS  :N         
                  PHOTO   :C  ET      :R  INFIL:S  HYDROL :R  SOM    :G         
                  CO2 396ppm  NSWIT   :1  EVAP :S  SOIL   :2  STEMP  :D         
 MANAGEMENT OPT : PLANTING:R  IRRIG   :N  FERT :D  RESIDUE:R  HARVEST:M         
                  WEATHER :M  TILLAGE :N                                        
                                                                                
*SUMMARY OF SOIL AND GENETIC INPUT PARAMETERS                                   
                                                                                
   SOIL LOWER UPPER   SAT  EXTR  INIT   ROOT   BULK     pH    NO3    NH4    ORG 
  DEPTH LIMIT LIMIT    SW    SW    SW   DIST   DENS                          C  
   cm   cm3/cm3    cm3/cm3    cm3/cm3         g/cm3         ugN/g  ugN/g     %  
------------------------------------------------------------------------------- 
  0-  5 0.313 0.407 0.502 0.094 0.424   1.00   1.53   7.00   3.78   4.42   1.32 
  5- 15 0.313 0.407 0.502 0.094 0.424   1.00   1.53   7.00   3.78   4.42   1.32 
 15- 26 0.313 0.407 0.502 0.094 0.424   1.00   1.53   7.00   3.78   4.42   1.32 
 26- 51 0.318 0.397 0.511 0.079 0.419   0.37   1.49   7.60   2.27   4.49   0.44 
 51- 75 0.318 0.397 0.511 0.079 0.418   0.37   1.49   7.60   1.98   4.50   0.44 
 75-100 0.318 0.397 0.511 0.079 0.418   0.37   1.49   7.60   1.98   4.50   0.44 
                                                                                
TOT-100  31.7  40.0  50.9   8.3  42.0  <--cm   -  kg/ha-->   37.9   67.2 101024 
SOIL ALBEDO    : 0.09      EVAPORATION LIMIT : 6.00         MIN. FACTOR  : 1.00 
RUNOFF CURVE # :73.00      DRAINAGE RATE     : 0.05         FERT. FACTOR : 1.00 
                                                                                
 Maize      CULTIVAR :000000-PIO 30F35HRB_      ECOTYPE :IB0001                 
 P1     : 180.00  P2     : 0.3000  P5     : 850.00                              
 G2     : 800.00  G3     :  6.000  PHINT  : 40.000                              


*SIMULATED CROP AND SOIL STATUS AT MAIN DEVELOPMENT STAGES

 RUN NO.     3     P3                      

        CROP GROWTH     BIOMASS         LEAF   CROP N     STRESS      STRESS                                           
   DATE  AGE STAGE        kg/ha    LAI   NUM  kg/ha  %   H2O  Nitr Phos1 Phos2  RSTG                                   
 ------  --- ----------   -----  -----  ----  ---  ---  ----  ----  ----  ----  ----                                   
 22 MAY    0 Start Sim        0   0.00   0.0    0  0.0  0.00  0.00  0.00  0.00     7
  6 JUN    0 Sowing           0   0.00   0.0    0  0.0  0.00  0.00  0.00  0.00     8
  7 JUN    1 Germinate        0   0.00   0.0    0  0.0  0.00  0.00  0.00  0.00     9
 11 JUN    5 Emergence       25   0.00   2.3    1  4.4  0.00  0.01  0.00  0.00     1
 20 JUN   14 End Juveni     111   0.24   7.5    4  3.3  0.05  0.00  0.00  0.00     2
 27 JUN   21 Floral Ini     397   0.69  11.1   14  3.6  0.25  0.00  0.00  0.00     3
 25 JUL   49 75% Silkin    7216   4.05  23.1  152  2.1  0.07  0.00  0.00  0.00     4
  3 AUG   58 Beg Gr Fil    9275   3.86  23.1  152  1.6  0.00  0.00  0.00  0.00     5
  4 SEP   90 End Gr Fil   13606   1.76  23.1  148  1.1  0.00  0.00  0.00  0.00     6
  6 SEP   92 Maturity     13606   1.76  23.1  148  1.1  0.00  0.00  0.00  0.00    10
  6 SEP   92 Harvest      13606   1.76  23.1  148  1.1  0.00  0.00  0.00  0.00    10


*MAIN GROWTH AND DEVELOPMENT VARIABLES

@     VARIABLE                                         SIMULATED     MEASURED
      --------                                         ---------     --------
      Anthesis day (dap)                                      49           49
      Physiological maturity day (dap)                        92           98
      Yield at harvest maturity (kg [dm]/ha)                4451          -99
      Number at maturity (no/m2)                            2621         2689
      Unit wt at maturity (g [dm]/unit)                   0.1698        0.271
      Number at maturity (no/unit)                         422.7          430
      Tops weight at maturity (kg [dm]/ha)                 13606          -99
      By-product produced (stalk) at maturity (kg[dm]/ha    9223          -99
      Leaf area index, maximum                              4.22          -99
      Harvest index at maturity                            0.327          -99
      Grain N at maturity (kg/ha)                             78          -99
      Tops N at maturity (kg/ha)                             148          -99
      Stem N at maturity (kg/ha)                              69          -99
      Grain N at maturity (%)                                1.8          -99
      Tops weight at anthesis (kg [dm]/ha)                  7078          -99
      Tops N at anthesis (kg/ha)                             152          -99
      Leaf number per stem at maturity                     23.06           19
      Emergence day (dap)                                      5          -99


*ENVIRONMENTAL AND STRESS FACTORS

 |-----Development Phase------|--------------------------------------Environment--------------------------------------|-----------------Stress-----------------|
                              |---------------Average--------------|-----Cumulative-----|--------Count of days--------|          (0=Min, 1=Max Stress)         |
                         Time  Temp  Temp  Temp Solar Photop                Evapo    Pot TMIN TMIN TMAX TMAX TMAX RAIN|----Water----|---Nitrogen--|-Phosphorus-|
                         Span   Max   Min  Mean   Rad  [day]    CO2   Rain  Trans     ET   <    <    >    >    >    >   Photo         Photo         Photo
                         days    øC    øC    øC MJ/m2     hr    ppm     mm     mm     mm  0øC  2øC 30øC 32øC 34øC  0mm  synth Growth  synth Growth  synth Growth
----------------------------------------------------------------------------------------------------------------------------------------------------------------
 Emergence-End Juvenile     9  32.0  24.5  28.2  17.0  24.00  396.3    9.3   39.2   45.2    0    0    9    2    0    5  0.000  0.048  0.002  0.005  0.000  0.000
 End Juvenil-Floral Init    7  31.9  24.3  28.1  14.7  24.00  396.4   15.9   21.2   29.4    0    0    7    2    0    3  0.108  0.223  0.001  0.003  0.000  0.000
 Floral Init-End Lf Grow   28  32.3  23.8  28.1  18.8  24.00  396.5  140.6  131.2  135.1    0    0   28   16    1   11  0.024  0.050  0.000  0.000  0.000  0.000
 End Lf Grth-Beg Grn Fil    9  32.9  23.3  28.1  16.6  24.00  396.6   58.6   35.0   37.4    0    0    9    7    1    7  0.055  0.073  0.000  0.000  0.000  0.000
 Grain Filling Phase       32  32.3  23.4  27.9  16.0  23.37  396.7  238.9  128.5  129.2    0    0   32   15    2   13  0.000  0.000  0.000  0.000  0.000  0.000


 Planting to Harvest       92  32.3  23.8  28.0  16.9  23.65  396.5  477.6  386.0  407.2    0    0   92   44    4   43  0.021  0.044  0.000  0.001  0.000  0.000
----------------------------------------------------------------------------------------------------------------------------------------------------------------


*Resource Productivity
 Growing season length:  92 days 

 Precipitation during growing season       477.6 mm[rain]
   Dry Matter Productivity                  2.85 kg[DM]/m3[rain]          =   28.5 kg[DM]/ha per mm[rain]
   Yield Productivity                       0.93 kg[grain yield]/m3[rain] =    9.3 kg[yield]/ha per mm[rain]

 Evapotranspiration during growing season  386.0 mm[ET]
   Dry Matter Productivity                  3.53 kg[DM]/m3[ET]            =   35.3 kg[DM]/ha per mm[ET]
   Yield Productivity                       1.15 kg[grain yield]/m3[ET]   =   11.5 kg[yield]/ha per mm[ET]

 Transpiration during growing season       261.9 mm[EP]
   Dry Matter Productivity                  5.19 kg[DM]/m3[EP]            =   51.9 kg[DM]/ha per mm[EP]
   Yield Productivity                       1.70 kg[grain yield]/m3[EP]   =   17.0 kg[yield]/ha per mm[EP]

 N applied during growing season            142. kg[N applied]/ha
   Dry Matter Productivity                  95.8 kg[DM]/kg[N applied]
   Yield Productivity                       31.3 kg[yield]/kg[N applied]

 N uptake during growing season              167 kg[N uptake]/ha
   Dry Matter Productivity                  81.5 kg[DM]/kg[N uptake]
   Yield Productivity                       26.7 kg[yield]/kg[N uptake]

--------------------------------------------------------------------------------------------------------------

                     Maize YIELD :     4451 kg/ha    [Dry weight] 

**************************************************************************************************************

*DSSAT Cropping System Model Ver. 4.6.1.000 -release      MAY 05, 2017; 11:09:10
                                                                                
*RUN   4        : P4                        MZCER046 0\000000    4              
 MODEL          : MZCER046 - Maize                                              
 EXPERIMENT     : 0\000000 BN Calibracion Cerete 2013                           
 DATA PATH      : C:\L\0\00000                                                  
 TREATMENT  4   : P4                        MZCER046                            
                                                                                
                                                                                
 CROP           : Maize            CULTIVAR : PIO 30F35HRB_    ECOTYPE :IB0001  
 STARTING DATE  : AUG 23 2013                                                   
 PLANTING DATE  : SEP  7 2013        PLANTS/m2 :  6.2     ROW SPACING :  80.cm  
 WEATHER        : CCCR   2013                                                   
 SOIL           : CCCERE2017     TEXTURE : CL    -   Suelo Cerete Calibracio    
 SOIL INITIAL C : DEPTH:100cm EXTR. H2O: 82.9mm  NO3: 37.9kg/ha  NH4: 67.2kg/ha 
 WATER BALANCE  : RAINFED                                                       
 IRRIGATION     : NOT IRRIGATED                                                 
 NITROGEN BAL.  : SOIL-N & N-UPTAKE SIMULATION; NO N-FIXATION                   
 N-FERTILIZER   :      142 kg/ha IN     5 APPLICATIONS                          
 RESIDUE/MANURE : INITIAL :     0 kg/ha ;       0 kg/ha IN     0 APPLICATIONS   
 ENVIRONM. OPT. : DAYL=    0.00  SRAD=    0.00  TMAX=    0.00  TMIN=    0.00    
                  RAIN=    0.00  CO2 =    0.00  DEW =    0.00  WIND=    0.00    
 SIMULATION OPT : WATER   :Y  NITROGEN:Y  N-FIX:N  PHOSPH :N  PESTS  :N         
                  PHOTO   :C  ET      :R  INFIL:S  HYDROL :R  SOM    :G         
                  CO2 397ppm  NSWIT   :1  EVAP :S  SOIL   :2  STEMP  :D         
 MANAGEMENT OPT : PLANTING:R  IRRIG   :N  FERT :D  RESIDUE:R  HARVEST:M         
                  WEATHER :M  TILLAGE :N                                        
                                                                                
*SUMMARY OF SOIL AND GENETIC INPUT PARAMETERS                                   
                                                                                
   SOIL LOWER UPPER   SAT  EXTR  INIT   ROOT   BULK     pH    NO3    NH4    ORG 
  DEPTH LIMIT LIMIT    SW    SW    SW   DIST   DENS                          C  
   cm   cm3/cm3    cm3/cm3    cm3/cm3         g/cm3         ugN/g  ugN/g     %  
------------------------------------------------------------------------------- 
  0-  5 0.313 0.407 0.502 0.094 0.424   1.00   1.53   7.00   3.78   4.42   1.32 
  5- 15 0.313 0.407 0.502 0.094 0.424   1.00   1.53   7.00   3.78   4.42   1.32 
 15- 26 0.313 0.407 0.502 0.094 0.424   1.00   1.53   7.00   3.78   4.42   1.32 
 26- 51 0.318 0.397 0.511 0.079 0.419   0.37   1.49   7.60   2.27   4.49   0.44 
 51- 75 0.318 0.397 0.511 0.079 0.418   0.37   1.49   7.60   1.98   4.50   0.44 
 75-100 0.318 0.397 0.511 0.079 0.418   0.37   1.49   7.60   1.98   4.50   0.44 
                                                                                
TOT-100  31.7  40.0  50.9   8.3  42.0  <--cm   -  kg/ha-->   37.9   67.2 101024 
SOIL ALBEDO    : 0.09      EVAPORATION LIMIT : 6.00         MIN. FACTOR  : 1.00 
RUNOFF CURVE # :73.00      DRAINAGE RATE     : 0.05         FERT. FACTOR : 1.00 
                                                                                
 Maize      CULTIVAR :000000-PIO 30F35HRB_      ECOTYPE :IB0001                 
 P1     : 180.00  P2     : 0.3000  P5     : 850.00                              
 G2     : 800.00  G3     :  6.000  PHINT  : 40.000                              


*SIMULATED CROP AND SOIL STATUS AT MAIN DEVELOPMENT STAGES

 RUN NO.     4     P4                      

        CROP GROWTH     BIOMASS         LEAF   CROP N     STRESS      STRESS                                           
   DATE  AGE STAGE        kg/ha    LAI   NUM  kg/ha  %   H2O  Nitr Phos1 Phos2  RSTG                                   
 ------  --- ----------   -----  -----  ----  ---  ---  ----  ----  ----  ----  ----                                   
 23 AUG    0 Start Sim        0   0.00   0.0    0  0.0  0.00  0.00  0.00  0.00     7
  7 SEP    0 Sowing           0   0.00   0.0    0  0.0  0.00  0.00  0.00  0.00     8
  8 SEP    1 Germinate        0   0.00   0.0    0  0.0  0.00  0.00  0.00  0.00     9
 12 SEP    5 Emergence       25   0.00   2.2    1  4.4  0.00  0.01  0.00  0.00     1
 21 SEP   14 End Juveni     113   0.24   7.5    4  3.1  0.04  0.00  0.00  0.00     2
 25 SEP   18 Floral Ini     240   0.46   9.5    9  3.7  0.14  0.00  0.00  0.00     3
 20 OCT   43 75% Silkin    4187   2.47  19.5   85  2.0  0.00  0.00  0.00  0.00     4
 29 OCT   52 Beg Gr Fil    5546   2.32  19.5   85  1.5  0.00  0.00  0.00  0.00     5
 30 NOV   84 End Gr Fil    8616   1.05  19.5   94  1.1  0.15  0.00  0.00  0.00     6
  2 DEC   86 Maturity      8616   1.05  19.5   94  1.1  0.00  0.00  0.00  0.00    10
  2 DEC   86 Harvest       8616   1.05  19.5   94  1.1  0.00  0.00  0.00  0.00    10


*MAIN GROWTH AND DEVELOPMENT VARIABLES

@     VARIABLE                                         SIMULATED     MEASURED
      --------                                         ---------     --------
      Anthesis day (dap)                                      43           51
      Physiological maturity day (dap)                        86          114
      Yield at harvest maturity (kg [dm]/ha)                3165         7908
      Number at maturity (no/m2)                            1859         2686
      Unit wt at maturity (g [dm]/unit)                   0.1703        0.296
      Number at maturity (no/unit)                         299.8          430
      Tops weight at maturity (kg [dm]/ha)                  8616        18007
      By-product produced (stalk) at maturity (kg[dm]/ha    5493         6801
      Leaf area index, maximum                              2.59         4.52
      Harvest index at maturity                            0.367         0.43
      Grain N at maturity (kg/ha)                             56          -99
      Tops N at maturity (kg/ha)                              94          -99
      Stem N at maturity (kg/ha)                              38          -99
      Grain N at maturity (%)                                1.8          -99
      Tops weight at anthesis (kg [dm]/ha)                  4035          -99
      Tops N at anthesis (kg/ha)                              84          -99
      Leaf number per stem at maturity                     19.53           17
      Emergence day (dap)                                      5          -99


*ENVIRONMENTAL AND STRESS FACTORS

 |-----Development Phase------|--------------------------------------Environment--------------------------------------|-----------------Stress-----------------|
                              |---------------Average--------------|-----Cumulative-----|--------Count of days--------|          (0=Min, 1=Max Stress)         |
                         Time  Temp  Temp  Temp Solar Photop                Evapo    Pot TMIN TMIN TMAX TMAX TMAX RAIN|----Water----|---Nitrogen--|-Phosphorus-|
                         Span   Max   Min  Mean   Rad  [day]    CO2   Rain  Trans     ET   <    <    >    >    >    >   Photo         Photo         Photo
                         days    øC    øC    øC MJ/m2     hr    ppm     mm     mm     mm  0øC  2øC 30øC 32øC 34øC  0mm  synth Growth  synth Growth  synth Growth
----------------------------------------------------------------------------------------------------------------------------------------------------------------
 Emergence-End Juvenile     9  32.3  24.0  28.2  14.7  13.64  396.9   29.8   37.8   39.2    0    0    9    4    1    4  0.000  0.025  0.002  0.006  0.000  0.000
 End Juvenil-Floral Init    4  32.3  24.0  28.1  14.8  11.40  397.0    3.6   16.2   17.1    0    0    4    2    0    1  0.028  0.131  0.001  0.004  0.000  0.000
 Floral Init-End Lf Grow   25  32.0  23.9  28.0  13.8   5.25  397.0  133.1   90.4   90.8    0    0   25   11    0    9  0.000  0.010  0.000  0.000  0.000  0.000
 End Lf Grth-Beg Grn Fil    9  32.0  24.2  28.1  12.3   0.00  397.1   26.9   28.1   28.3    0    0    9    3    1    4  0.000  0.000  0.000  0.000  0.000  0.000
 Grain Filling Phase       32  31.6  23.7  27.7  15.5   0.00  397.2  107.8  121.3  127.5    0    0   31    8    0   11  0.052  0.149  0.000  0.000  0.000  0.000


 Planting to Harvest       86  31.9  23.9  27.9  14.6   4.42  397.1  350.0  326.8  335.9    0    0   84   31    2   32  0.020  0.067  0.000  0.001  0.000  0.000
----------------------------------------------------------------------------------------------------------------------------------------------------------------


*Resource Productivity
 Growing season length:  86 days 

 Precipitation during growing season       350.0 mm[rain]
   Dry Matter Productivity                  2.46 kg[DM]/m3[rain]          =   24.6 kg[DM]/ha per mm[rain]
   Yield Productivity                       0.90 kg[grain yield]/m3[rain] =    9.0 kg[yield]/ha per mm[rain]

 Evapotranspiration during growing season  326.8 mm[ET]
   Dry Matter Productivity                  2.64 kg[DM]/m3[ET]            =   26.4 kg[DM]/ha per mm[ET]
   Yield Productivity                       0.97 kg[grain yield]/m3[ET]   =    9.7 kg[yield]/ha per mm[ET]

 Transpiration during growing season       177.2 mm[EP]
   Dry Matter Productivity                  4.86 kg[DM]/m3[EP]            =   48.6 kg[DM]/ha per mm[EP]
   Yield Productivity                       1.79 kg[grain yield]/m3[EP]   =   17.9 kg[yield]/ha per mm[EP]

 N applied during growing season            142. kg[N applied]/ha
   Dry Matter Productivity                  60.7 kg[DM]/kg[N applied]
   Yield Productivity                       22.3 kg[yield]/kg[N applied]

 N uptake during growing season              107 kg[N uptake]/ha
   Dry Matter Productivity                  80.5 kg[DM]/kg[N uptake]
   Yield Productivity                       29.6 kg[yield]/kg[N uptake]

--------------------------------------------------------------------------------------------------------------

                     Maize YIELD :     3165 kg/ha    [Dry weight] 

**************************************************************************************************************

*DSSAT Cropping System Model Ver. 4.6.1.000 -release      MAY 05, 2017; 11:09:10
                                                                                
*RUN   5        : P5                        MZCER046 0\000000    5              
 MODEL          : MZCER046 - Maize                                              
 EXPERIMENT     : 0\000000 BN Calibracion Cerete 2013                           
 DATA PATH      : C:\L\0\00000                                                  
 TREATMENT  5   : P5                        MZCER046                            
                                                                                
                                                                                
 CROP           : Maize            CULTIVAR : PIO 30F35HRB_    ECOTYPE :IB0001  
 STARTING DATE  : SEP 11 2013                                                   
 PLANTING DATE  : SEP 26 2013        PLANTS/m2 :  6.2     ROW SPACING :  80.cm  
 WEATHER        : CCCR   2013                                                   
 SOIL           : CCCERE2017     TEXTURE : CL    -   Suelo Cerete Calibracio    
 SOIL INITIAL C : DEPTH:100cm EXTR. H2O: 82.9mm  NO3: 37.9kg/ha  NH4: 67.2kg/ha 
 WATER BALANCE  : RAINFED                                                       
 IRRIGATION     : NOT IRRIGATED                                                 
 NITROGEN BAL.  : SOIL-N & N-UPTAKE SIMULATION; NO N-FIXATION                   
 N-FERTILIZER   :      142 kg/ha IN     5 APPLICATIONS                          
 RESIDUE/MANURE : INITIAL :     0 kg/ha ;       0 kg/ha IN     0 APPLICATIONS   
 ENVIRONM. OPT. : DAYL=    0.00  SRAD=    0.00  TMAX=    0.00  TMIN=    0.00    
                  RAIN=    0.00  CO2 =    0.00  DEW =    0.00  WIND=    0.00    
 SIMULATION OPT : WATER   :Y  NITROGEN:Y  N-FIX:N  PHOSPH :N  PESTS  :N         
                  PHOTO   :C  ET      :R  INFIL:S  HYDROL :R  SOM    :G         
                  CO2 397ppm  NSWIT   :1  EVAP :S  SOIL   :2  STEMP  :D         
 MANAGEMENT OPT : PLANTING:R  IRRIG   :N  FERT :D  RESIDUE:R  HARVEST:M         
                  WEATHER :M  TILLAGE :N                                        
                                                                                
*SUMMARY OF SOIL AND GENETIC INPUT PARAMETERS                                   
                                                                                
   SOIL LOWER UPPER   SAT  EXTR  INIT   ROOT   BULK     pH    NO3    NH4    ORG 
  DEPTH LIMIT LIMIT    SW    SW    SW   DIST   DENS                          C  
   cm   cm3/cm3    cm3/cm3    cm3/cm3         g/cm3         ugN/g  ugN/g     %  
------------------------------------------------------------------------------- 
  0-  5 0.313 0.407 0.502 0.094 0.424   1.00   1.53   7.00   3.78   4.42   1.32 
  5- 15 0.313 0.407 0.502 0.094 0.424   1.00   1.53   7.00   3.78   4.42   1.32 
 15- 26 0.313 0.407 0.502 0.094 0.424   1.00   1.53   7.00   3.78   4.42   1.32 
 26- 51 0.318 0.397 0.511 0.079 0.419   0.37   1.49   7.60   2.27   4.49   0.44 
 51- 75 0.318 0.397 0.511 0.079 0.418   0.37   1.49   7.60   1.98   4.50   0.44 
 75-100 0.318 0.397 0.511 0.079 0.418   0.37   1.49   7.60   1.98   4.50   0.44 
                                                                                
TOT-100  31.7  40.0  50.9   8.3  42.0  <--cm   -  kg/ha-->   37.9   67.2 101024 
SOIL ALBEDO    : 0.09      EVAPORATION LIMIT : 6.00         MIN. FACTOR  : 1.00 
RUNOFF CURVE # :73.00      DRAINAGE RATE     : 0.05         FERT. FACTOR : 1.00 
                                                                                
 Maize      CULTIVAR :000000-PIO 30F35HRB_      ECOTYPE :IB0001                 
 P1     : 180.00  P2     : 0.3000  P5     : 850.00                              
 G2     : 800.00  G3     :  6.000  PHINT  : 40.000                              


*SIMULATED CROP AND SOIL STATUS AT MAIN DEVELOPMENT STAGES

 RUN NO.     5     P5                      

        CROP GROWTH     BIOMASS         LEAF   CROP N     STRESS      STRESS                                           
   DATE  AGE STAGE        kg/ha    LAI   NUM  kg/ha  %   H2O  Nitr Phos1 Phos2  RSTG                                   
 ------  --- ----------   -----  -----  ----  ---  ---  ----  ----  ----  ----  ----                                   
 11 SEP    0 Start Sim        0   0.00   0.0    0  0.0  0.00  0.00  0.00  0.00     7
 26 SEP    0 Sowing           0   0.00   0.0    0  0.0  0.00  0.00  0.00  0.00     8
 27 SEP    1 Germinate        0   0.00   0.0    0  0.0  0.00  0.00  0.00  0.00     9
  1 OCT    5 Emergence       25   0.00   2.3    1  4.4  0.00  0.01  0.00  0.00     1
 10 OCT   14 End Juveni     115   0.24   7.4    3  3.0  0.00  0.00  0.00  0.00     2
 14 OCT   18 Floral Ini     234   0.45   9.5    9  3.7  0.01  0.00  0.00  0.00     3
  8 NOV   43 75% Silkin    3404   1.96  19.4   72  2.1  0.20  0.00  0.00  0.00     4
 17 NOV   52 Beg Gr Fil    4936   1.96  19.4   73  1.5  0.00  0.00  0.00  0.00     5
 19 DEC   84 End Gr Fil    7949   0.93  19.4   89  1.1  0.31  0.00  0.00  0.00     6
 21 DEC   86 Maturity      7949   0.93  19.4   89  1.1  0.70  0.00  0.00  0.00    10
 21 DEC   86 Harvest       7949   0.93  19.4   89  1.1  0.00  0.00  0.00  0.00    10


*MAIN GROWTH AND DEVELOPMENT VARIABLES

@     VARIABLE                                         SIMULATED     MEASURED
      --------                                         ---------     --------
      Anthesis day (dap)                                      43           51
      Physiological maturity day (dap)                        86          109
      Yield at harvest maturity (kg [dm]/ha)                3109         8652
      Number at maturity (no/m2)                            2033         3157
      Unit wt at maturity (g [dm]/unit)                   0.1529        0.274
      Number at maturity (no/unit)                         328.0          505
      Tops weight at maturity (kg [dm]/ha)                  7949        21338
      By-product produced (stalk) at maturity (kg[dm]/ha    4877         7441
      Leaf area index, maximum                              2.10          -99
      Harvest index at maturity                            0.391         0.40
      Grain N at maturity (kg/ha)                             56          -99
      Tops N at maturity (kg/ha)                              89          -99
      Stem N at maturity (kg/ha)                              33          -99
      Grain N at maturity (%)                                1.8          -99
      Tops weight at anthesis (kg [dm]/ha)                  3199          -99
      Tops N at anthesis (kg/ha)                              70          -99
      Leaf number per stem at maturity                     19.43           18
      Emergence day (dap)                                      5          -99


*ENVIRONMENTAL AND STRESS FACTORS

 |-----Development Phase------|--------------------------------------Environment--------------------------------------|-----------------Stress-----------------|
                              |---------------Average--------------|-----Cumulative-----|--------Count of days--------|          (0=Min, 1=Max Stress)         |
                         Time  Temp  Temp  Temp Solar Photop                Evapo    Pot TMIN TMIN TMAX TMAX TMAX RAIN|----Water----|---Nitrogen--|-Phosphorus-|
                         Span   Max   Min  Mean   Rad  [day]    CO2   Rain  Trans     ET   <    <    >    >    >    >   Photo         Photo         Photo
                         days    øC    øC    øC MJ/m2     hr    ppm     mm     mm     mm  0øC  2øC 30øC 32øC 34øC  0mm  synth Growth  synth Growth  synth Growth
----------------------------------------------------------------------------------------------------------------------------------------------------------------
 Emergence-End Juvenile     9  32.1  24.2  28.2  14.2   6.73  396.9   15.1   36.4   37.7    0    0    9    4    0    3  0.000  0.002  0.002  0.006  0.000  0.000
 End Juvenil-Floral Init    4  32.1  23.3  27.7  15.4   3.14  397.0   41.0   17.7   17.7    0    0    4    1    0    2  0.000  0.008  0.001  0.004  0.000  0.000
 Floral Init-End Lf Grow   25  31.9  23.7  27.8  14.1   0.00  397.1   66.4   80.9   93.1    0    0   25   11    1   11  0.142  0.202  0.000  0.000  0.000  0.000
 End Lf Grth-Beg Grn Fil    9  31.5  24.4  28.0  15.2   0.00  397.2   21.9   35.0   35.2    0    0    8    1    0    2  0.000  0.000  0.000  0.000  0.000  0.000
 Grain Filling Phase       32  32.0  23.8  27.9  15.6   0.00  397.3   90.9  108.6  130.1    0    0   32   10    0    7  0.181  0.287  0.000  0.000  0.000  0.000


 Planting to Harvest       86  31.9  23.9  27.9  14.8   1.40  397.2  305.1  300.9  342.2    0    0   85   30    1   27  0.120  0.181  0.000  0.001  0.000  0.000
----------------------------------------------------------------------------------------------------------------------------------------------------------------


*Resource Productivity
 Growing season length:  86 days 

 Precipitation during growing season       305.1 mm[rain]
   Dry Matter Productivity                  2.61 kg[DM]/m3[rain]          =   26.1 kg[DM]/ha per mm[rain]
   Yield Productivity                       1.02 kg[grain yield]/m3[rain] =   10.2 kg[yield]/ha per mm[rain]

 Evapotranspiration during growing season  300.9 mm[ET]
   Dry Matter Productivity                  2.64 kg[DM]/m3[ET]            =   26.4 kg[DM]/ha per mm[ET]
   Yield Productivity                       1.03 kg[grain yield]/m3[ET]   =   10.3 kg[yield]/ha per mm[ET]

 Transpiration during growing season       147.1 mm[EP]
   Dry Matter Productivity                  5.40 kg[DM]/m3[EP]            =   54.0 kg[DM]/ha per mm[EP]
   Yield Productivity                       2.11 kg[grain yield]/m3[EP]   =   21.1 kg[yield]/ha per mm[EP]

 N applied during growing season            142. kg[N applied]/ha
   Dry Matter Productivity                  56.0 kg[DM]/kg[N applied]
   Yield Productivity                       21.9 kg[yield]/kg[N applied]

 N uptake during growing season               97 kg[N uptake]/ha
   Dry Matter Productivity                  81.9 kg[DM]/kg[N uptake]
   Yield Productivity                       32.1 kg[yield]/kg[N uptake]

--------------------------------------------------------------------------------------------------------------

                     Maize YIELD :     3109 kg/ha    [Dry weight] 

**************************************************************************************************************

*DSSAT Cropping System Model Ver. 4.6.1.000 -release      MAY 05, 2017; 11:09:10
                                                                                
*RUN   6        : P6                        MZCER046 0\000000    6              
 MODEL          : MZCER046 - Maize                                              
 EXPERIMENT     : 0\000000 BN Calibracion Cerete 2013                           
 DATA PATH      : C:\L\0\00000                                                  
 TREATMENT  6   : P6                        MZCER046                            
                                                                                
                                                                                
 CROP           : Maize            CULTIVAR : PIO 30F35HRB_    ECOTYPE :IB0001  
 STARTING DATE  : SEP 20 2013                                                   
 PLANTING DATE  : OCT  5 2013        PLANTS/m2 :  6.2     ROW SPACING :  80.cm  
 WEATHER        : CCCR   2013                                                   
 SOIL           : CCCERE2017     TEXTURE : CL    -   Suelo Cerete Calibracio    
 SOIL INITIAL C : DEPTH:100cm EXTR. H2O: 82.9mm  NO3: 37.9kg/ha  NH4: 67.2kg/ha 
 WATER BALANCE  : RAINFED                                                       
 IRRIGATION     : NOT IRRIGATED                                                 
 NITROGEN BAL.  : SOIL-N & N-UPTAKE SIMULATION; NO N-FIXATION                   
 N-FERTILIZER   :      142 kg/ha IN     5 APPLICATIONS                          
 RESIDUE/MANURE : INITIAL :     0 kg/ha ;       0 kg/ha IN     0 APPLICATIONS   
 ENVIRONM. OPT. : DAYL=    0.00  SRAD=    0.00  TMAX=    0.00  TMIN=    0.00    
                  RAIN=    0.00  CO2 =    0.00  DEW =    0.00  WIND=    0.00    
 SIMULATION OPT : WATER   :Y  NITROGEN:Y  N-FIX:N  PHOSPH :N  PESTS  :N         
                  PHOTO   :C  ET      :R  INFIL:S  HYDROL :R  SOM    :G         
                  CO2 397ppm  NSWIT   :1  EVAP :S  SOIL   :2  STEMP  :D         
 MANAGEMENT OPT : PLANTING:R  IRRIG   :N  FERT :D  RESIDUE:R  HARVEST:M         
                  WEATHER :M  TILLAGE :N                                        
                                                                                
*SUMMARY OF SOIL AND GENETIC INPUT PARAMETERS                                   
                                                                                
   SOIL LOWER UPPER   SAT  EXTR  INIT   ROOT   BULK     pH    NO3    NH4    ORG 
  DEPTH LIMIT LIMIT    SW    SW    SW   DIST   DENS                          C  
   cm   cm3/cm3    cm3/cm3    cm3/cm3         g/cm3         ugN/g  ugN/g     %  
------------------------------------------------------------------------------- 
  0-  5 0.313 0.407 0.502 0.094 0.424   1.00   1.53   7.00   3.78   4.42   1.32 
  5- 15 0.313 0.407 0.502 0.094 0.424   1.00   1.53   7.00   3.78   4.42   1.32 
 15- 26 0.313 0.407 0.502 0.094 0.424   1.00   1.53   7.00   3.78   4.42   1.32 
 26- 51 0.318 0.397 0.511 0.079 0.419   0.37   1.49   7.60   2.27   4.49   0.44 
 51- 75 0.318 0.397 0.511 0.079 0.418   0.37   1.49   7.60   1.98   4.50   0.44 
 75-100 0.318 0.397 0.511 0.079 0.418   0.37   1.49   7.60   1.98   4.50   0.44 
                                                                                
TOT-100  31.7  40.0  50.9   8.3  42.0  <--cm   -  kg/ha-->   37.9   67.2 101024 
SOIL ALBEDO    : 0.09      EVAPORATION LIMIT : 6.00         MIN. FACTOR  : 1.00 
RUNOFF CURVE # :73.00      DRAINAGE RATE     : 0.05         FERT. FACTOR : 1.00 
                                                                                
 Maize      CULTIVAR :000000-PIO 30F35HRB_      ECOTYPE :IB0001                 
 P1     : 180.00  P2     : 0.3000  P5     : 850.00                              
 G2     : 800.00  G3     :  6.000  PHINT  : 40.000                              


*SIMULATED CROP AND SOIL STATUS AT MAIN DEVELOPMENT STAGES

 RUN NO.     6     P6                      

        CROP GROWTH     BIOMASS         LEAF   CROP N     STRESS      STRESS                                           
   DATE  AGE STAGE        kg/ha    LAI   NUM  kg/ha  %   H2O  Nitr Phos1 Phos2  RSTG                                   
 ------  --- ----------   -----  -----  ----  ---  ---  ----  ----  ----  ----  ----                                   
 20 SEP    0 Start Sim        0   0.00   0.0    0  0.0  0.00  0.00  0.00  0.00     7
  5 OCT    0 Sowing           0   0.00   0.0    0  0.0  0.00  0.00  0.00  0.00     8
  6 OCT    1 Germinate        0   0.00   0.0    0  0.0  0.00  0.00  0.00  0.00     9
 10 OCT    5 Emergence       25   0.00   2.3    1  4.4  0.00  0.01  0.00  0.00     1
 19 OCT   14 End Juveni     111   0.24   7.4    4  3.2  0.00  0.01  0.00  0.00     2
 23 OCT   18 Floral Ini     233   0.45   9.4    9  3.7  0.01  0.00  0.00  0.00     3
 17 NOV   43 75% Silkin    3393   1.91  19.3   70  2.1  0.19  0.00  0.00  0.00     4
 26 NOV   52 Beg Gr Fil    3929   1.46  19.3   71  1.8  0.72  0.00  0.00  0.00     5
 28 DEC   84 End Gr Fil    5625   0.88  19.3   65  1.2  0.34  0.00  0.00  0.00     6
 30 DEC   86 Maturity      5625   0.88  19.3   65  1.2  0.81  0.00  0.00  0.00    10
 30 DEC   86 Harvest       5625   0.88  19.3   65  1.2  0.00  0.00  0.00  0.00    10


*MAIN GROWTH AND DEVELOPMENT VARIABLES

@     VARIABLE                                         SIMULATED     MEASURED
      --------                                         ---------     --------
      Anthesis day (dap)                                      43           52
      Physiological maturity day (dap)                        86          107
      Yield at harvest maturity (kg [dm]/ha)                1735         7381
      Number at maturity (no/m2)                            1167         3033
      Unit wt at maturity (g [dm]/unit)                   0.1487        0.326
      Number at maturity (no/unit)                         188.2          485
      Tops weight at maturity (kg [dm]/ha)                  5625        17051
      By-product produced (stalk) at maturity (kg[dm]/ha    3923         6348
      Leaf area index, maximum                              1.91          -99
      Harvest index at maturity                            0.308         0.43
      Grain N at maturity (kg/ha)                             31          -99
      Tops N at maturity (kg/ha)                              65          -99
      Stem N at maturity (kg/ha)                              34          -99
      Grain N at maturity (%)                                1.8          -99
      Tops weight at anthesis (kg [dm]/ha)                  3175          -99
      Tops N at anthesis (kg/ha)                              68          -99
      Leaf number per stem at maturity                     19.30           19
      Emergence day (dap)                                      5          -99


*ENVIRONMENTAL AND STRESS FACTORS

 |-----Development Phase------|--------------------------------------Environment--------------------------------------|-----------------Stress-----------------|
                              |---------------Average--------------|-----Cumulative-----|--------Count of days--------|          (0=Min, 1=Max Stress)         |
                         Time  Temp  Temp  Temp Solar Photop                Evapo    Pot TMIN TMIN TMAX TMAX TMAX RAIN|----Water----|---Nitrogen--|-Phosphorus-|
                         Span   Max   Min  Mean   Rad  [day]    CO2   Rain  Trans     ET   <    <    >    >    >    >   Photo         Photo         Photo
                         days    øC    øC    øC MJ/m2     hr    ppm     mm     mm     mm  0øC  2øC 30øC 32øC 34øC  0mm  synth Growth  synth Growth  synth Growth
----------------------------------------------------------------------------------------------------------------------------------------------------------------
 Emergence-End Juvenile     9  32.2  23.6  27.9  14.6   1.40  397.0   47.6   38.9   38.9    0    0    9    5    0    3  0.000  0.000  0.004  0.011  0.000  0.000
 End Juvenil-Floral Init    4  31.4  24.1  27.8  10.4   0.00  397.1   24.9   11.9   11.9    0    0    4    1    0    2  0.000  0.000  0.001  0.003  0.000  0.000
 Floral Init-End Lf Grow   25  31.7  23.9  27.8  15.2   0.00  397.1   56.8   90.6  100.8    0    0   24    7    1   10  0.117  0.192  0.000  0.000  0.000  0.000
 End Lf Grth-Beg Grn Fil    9  31.8  23.9  27.9  15.6   0.00  397.3    3.1   23.3   36.1    0    0    9    3    0    2  0.503  0.632  0.000  0.000  0.000  0.000
 Grain Filling Phase       32  32.1  23.3  27.7  16.7   0.00  397.4   87.8   99.4  140.2    0    0   32   12    0    5  0.253  0.341  0.000  0.000  0.000  0.000


 Planting to Harvest       86  31.9  23.7  27.8  15.5   0.49  397.2  225.1  287.0  358.8    0    0   85   32    1   24  0.197  0.267  0.001  0.001  0.000  0.000
----------------------------------------------------------------------------------------------------------------------------------------------------------------


*Resource Productivity
 Growing season length:  86 days 

 Precipitation during growing season       225.1 mm[rain]
   Dry Matter Productivity                  2.50 kg[DM]/m3[rain]          =   25.0 kg[DM]/ha per mm[rain]
   Yield Productivity                       0.77 kg[grain yield]/m3[rain] =    7.7 kg[yield]/ha per mm[rain]

 Evapotranspiration during growing season  287.0 mm[ET]
   Dry Matter Productivity                  1.96 kg[DM]/m3[ET]            =   19.6 kg[DM]/ha per mm[ET]
   Yield Productivity                       0.60 kg[grain yield]/m3[ET]   =    6.0 kg[yield]/ha per mm[ET]

 Transpiration during growing season       127.4 mm[EP]
   Dry Matter Productivity                  4.42 kg[DM]/m3[EP]            =   44.2 kg[DM]/ha per mm[EP]
   Yield Productivity                       1.36 kg[grain yield]/m3[EP]   =   13.6 kg[yield]/ha per mm[EP]

 N applied during growing season            142. kg[N applied]/ha
   Dry Matter Productivity                  39.6 kg[DM]/kg[N applied]
   Yield Productivity                       12.2 kg[yield]/kg[N applied]

 N uptake during growing season               76 kg[N uptake]/ha
   Dry Matter Productivity                  74.0 kg[DM]/kg[N uptake]
   Yield Productivity                       22.8 kg[yield]/kg[N uptake]

--------------------------------------------------------------------------------------------------------------

                     Maize YIELD :     1735 kg/ha    [Dry weight] 

**************************************************************************************************************

*DSSAT Cropping System Model Ver. 4.6.1.000 -release      MAY 05, 2017; 11:09:10
                                                                                
*RUN   7        : P7                        MZCER046 0\000000    7              
 MODEL          : MZCER046 - Maize                                              
 EXPERIMENT     : 0\000000 BN Calibracion Cerete 2013                           
 DATA PATH      : C:\L\0\00000                                                  
 TREATMENT  7   : P7                        MZCER046                            
                                                                                
                                                                                
 CROP           : Maize            CULTIVAR : PIO 30F35HRB_    ECOTYPE :IB0001  
 STARTING DATE  : APR 23 2014                                                   
 PLANTING DATE  : MAY  8 2014        PLANTS/m2 :  6.2     ROW SPACING :  80.cm  
 WEATHER        : CCCR   2014                                                   
 SOIL           : CCCERE2017     TEXTURE : CL    -   Suelo Cerete Calibracio    
 SOIL INITIAL C : DEPTH:100cm EXTR. H2O: 82.9mm  NO3: 37.9kg/ha  NH4: 67.2kg/ha 
 WATER BALANCE  : RAINFED                                                       
 IRRIGATION     : NOT IRRIGATED                                                 
 NITROGEN BAL.  : SOIL-N & N-UPTAKE SIMULATION; NO N-FIXATION                   
 N-FERTILIZER   :      142 kg/ha IN     5 APPLICATIONS                          
 RESIDUE/MANURE : INITIAL :     0 kg/ha ;       0 kg/ha IN     0 APPLICATIONS   
 ENVIRONM. OPT. : DAYL=    0.00  SRAD=    0.00  TMAX=    0.00  TMIN=    0.00    
                  RAIN=    0.00  CO2 =    0.00  DEW =    0.00  WIND=    0.00    
 SIMULATION OPT : WATER   :Y  NITROGEN:Y  N-FIX:N  PHOSPH :N  PESTS  :N         
                  PHOTO   :C  ET      :R  INFIL:S  HYDROL :R  SOM    :G         
                  CO2 398ppm  NSWIT   :1  EVAP :S  SOIL   :2  STEMP  :D         
 MANAGEMENT OPT : PLANTING:R  IRRIG   :N  FERT :D  RESIDUE:R  HARVEST:M         
                  WEATHER :M  TILLAGE :N                                        
                                                                                
*SUMMARY OF SOIL AND GENETIC INPUT PARAMETERS                                   
                                                                                
   SOIL LOWER UPPER   SAT  EXTR  INIT   ROOT   BULK     pH    NO3    NH4    ORG 
  DEPTH LIMIT LIMIT    SW    SW    SW   DIST   DENS                          C  
   cm   cm3/cm3    cm3/cm3    cm3/cm3         g/cm3         ugN/g  ugN/g     %  
------------------------------------------------------------------------------- 
  0-  5 0.313 0.407 0.502 0.094 0.364   1.00   1.53   7.00   3.78   4.42   1.32 
  5- 15 0.313 0.407 0.502 0.094 0.364   1.00   1.53   7.00   3.78   4.42   1.32 
 15- 26 0.313 0.407 0.502 0.094 0.364   1.00   1.53   7.00   3.78   4.42   1.32 
 26- 51 0.318 0.397 0.511 0.079 0.372   0.37   1.49   7.60   2.27   4.49   0.44 
 51- 75 0.318 0.397 0.511 0.079 0.373   0.37   1.49   7.60   1.98   4.50   0.44 
 75-100 0.318 0.397 0.511 0.079 0.373   0.37   1.49   7.60   1.98   4.50   0.44 
                                                                                
TOT-100  31.7  40.0  50.9   8.3  37.0  <--cm   -  kg/ha-->   37.9   67.2 101024 
SOIL ALBEDO    : 0.09      EVAPORATION LIMIT : 6.00         MIN. FACTOR  : 1.00 
RUNOFF CURVE # :73.00      DRAINAGE RATE     : 0.05         FERT. FACTOR : 1.00 
                                                                                
 Maize      CULTIVAR :000000-PIO 30F35HRB_      ECOTYPE :IB0001                 
 P1     : 180.00  P2     : 0.3000  P5     : 850.00                              
 G2     : 800.00  G3     :  6.000  PHINT  : 40.000                              


*SIMULATED CROP AND SOIL STATUS AT MAIN DEVELOPMENT STAGES

 RUN NO.     7     P7                      

        CROP GROWTH     BIOMASS         LEAF   CROP N     STRESS      STRESS                                           
   DATE  AGE STAGE        kg/ha    LAI   NUM  kg/ha  %   H2O  Nitr Phos1 Phos2  RSTG                                   
 ------  --- ----------   -----  -----  ----  ---  ---  ----  ----  ----  ----  ----                                   
 23 APR    0 Start Sim        0   0.00   0.0    0  0.0  0.00  0.00  0.00  0.00     7
  8 MAY    0 Sowing           0   0.00   0.0    0  0.0  0.00  0.00  0.00  0.00     8
  9 MAY    1 Germinate        0   0.00   0.0    0  0.0  0.00  0.00  0.00  0.00     9
 13 MAY    5 Emergence       25   0.00   2.3    1  4.4  0.00  0.01  0.00  0.00     1
 22 MAY   14 End Juveni     103   0.22   7.5    4  3.6  0.12  0.00  0.00  0.00     2
 29 MAY   21 Floral Ini     228   0.39  11.1    9  3.8  0.65  0.00  0.00  0.00     3
 27 JUN   50 75% Silkin    1812   0.85  23.2   37  2.0  0.43  0.00  0.00  0.00     4
  5 JUL   58 Beg Gr Fil    2690   0.84  23.2   37  1.4  0.13  0.00  0.00  0.00     5
  6 AUG   90 End Gr Fil    4527   0.48  23.2   52  1.2  0.36  0.00  0.00  0.00     6
  8 AUG   92 Maturity      4527   0.48  23.2   52  1.2  0.00  0.00  0.00  0.00    10
  8 AUG   92 Harvest       4527   0.48  23.2   52  1.2  0.00  0.00  0.00  0.00    10


*MAIN GROWTH AND DEVELOPMENT VARIABLES

@     VARIABLE                                         SIMULATED     MEASURED
      --------                                         ---------     --------
      Anthesis day (dap)                                      50           46
      Physiological maturity day (dap)                        92          104
      Yield at harvest maturity (kg [dm]/ha)                1956         9926
      Number at maturity (no/m2)                            1378         3103
      Unit wt at maturity (g [dm]/unit)                   0.1420         0.27
      Number at maturity (no/unit)                         222.2          497
      Tops weight at maturity (kg [dm]/ha)                  4527        23251
      By-product produced (stalk) at maturity (kg[dm]/ha    2591         8536
      Leaf area index, maximum                              0.85         4.61
      Harvest index at maturity                            0.432         0.42
      Grain N at maturity (kg/ha)                             35          -99
      Tops N at maturity (kg/ha)                              52          -99
      Stem N at maturity (kg/ha)                              17          -99
      Grain N at maturity (%)                                1.8          -99
      Tops weight at anthesis (kg [dm]/ha)                  1700          -99
      Tops N at anthesis (kg/ha)                              36          -99
      Leaf number per stem at maturity                     23.15           16
      Emergence day (dap)                                      5          -99


*ENVIRONMENTAL AND STRESS FACTORS

 |-----Development Phase------|--------------------------------------Environment--------------------------------------|-----------------Stress-----------------|
                              |---------------Average--------------|-----Cumulative-----|--------Count of days--------|          (0=Min, 1=Max Stress)         |
                         Time  Temp  Temp  Temp Solar Photop                Evapo    Pot TMIN TMIN TMAX TMAX TMAX RAIN|----Water----|---Nitrogen--|-Phosphorus-|
                         Span   Max   Min  Mean   Rad  [day]    CO2   Rain  Trans     ET   <    <    >    >    >    >   Photo         Photo         Photo
                         days    øC    øC    øC MJ/m2     hr    ppm     mm     mm     mm  0øC  2øC 30øC 32øC 34øC  0mm  synth Growth  synth Growth  synth Growth
----------------------------------------------------------------------------------------------------------------------------------------------------------------
 Emergence-End Juvenile     9  32.4  24.6  28.5  16.6  24.00  398.3    0.0   34.2   44.5    0    0    9    6    0    0  0.000  0.055  0.002  0.005  0.000  0.000
 End Juvenil-Floral Init    7  31.9  24.3  28.1  17.9  24.00  398.4    1.0   12.3   35.6    0    0    6    4    0    1  0.476  0.651  0.001  0.003  0.000  0.000
 Floral Init-End Lf Grow   29  32.0  24.1  28.0  14.5  24.00  398.4  133.0   82.9  117.3    0    0   28   16    0   11  0.388  0.446  0.000  0.000  0.000  0.000
 End Lf Grth-Beg Grn Fil    8  32.6  23.6  28.1  16.7  24.00  398.5    5.3   35.0   36.6    0    0    8    5    1    2  0.027  0.081  0.000  0.000  0.000  0.000
 Grain Filling Phase       32  32.1  23.9  28.0  18.9  24.00  398.6  119.9  118.8  166.0    0    0   32   16    0   10  0.280  0.376  0.000  0.000  0.000  0.000


 Planting to Harvest       92  32.2  24.1  28.1  17.0  24.00  398.5  358.7  319.3  437.4    0    0   90   54    1   27  0.258  0.333  0.000  0.001  0.000  0.000
----------------------------------------------------------------------------------------------------------------------------------------------------------------


*Resource Productivity
 Growing season length:  92 days 

 Precipitation during growing season       358.7 mm[rain]
   Dry Matter Productivity                  1.26 kg[DM]/m3[rain]          =   12.6 kg[DM]/ha per mm[rain]
   Yield Productivity                       0.55 kg[grain yield]/m3[rain] =    5.5 kg[yield]/ha per mm[rain]

 Evapotranspiration during growing season  319.3 mm[ET]
   Dry Matter Productivity                  1.42 kg[DM]/m3[ET]            =   14.2 kg[DM]/ha per mm[ET]
   Yield Productivity                       0.61 kg[grain yield]/m3[ET]   =    6.1 kg[yield]/ha per mm[ET]

 Transpiration during growing season        95.4 mm[EP]
   Dry Matter Productivity                  4.74 kg[DM]/m3[EP]            =   47.4 kg[DM]/ha per mm[EP]
   Yield Productivity                       2.05 kg[grain yield]/m3[EP]   =   20.5 kg[yield]/ha per mm[EP]

 N applied during growing season            142. kg[N applied]/ha
   Dry Matter Productivity                  31.9 kg[DM]/kg[N applied]
   Yield Productivity                       13.8 kg[yield]/kg[N applied]

 N uptake during growing season               57 kg[N uptake]/ha
   Dry Matter Productivity                  79.4 kg[DM]/kg[N uptake]
   Yield Productivity                       34.3 kg[yield]/kg[N uptake]

--------------------------------------------------------------------------------------------------------------

                     Maize YIELD :     1956 kg/ha    [Dry weight] 

**************************************************************************************************************

*DSSAT Cropping System Model Ver. 4.6.1.000 -release      MAY 05, 2017; 11:09:10
                                                                                
*RUN   8        : P8                        MZCER046 0\000000    8              
 MODEL          : MZCER046 - Maize                                              
 EXPERIMENT     : 0\000000 BN Calibracion Cerete 2013                           
 DATA PATH      : C:\L\0\00000                                                  
 TREATMENT  8   : P8                        MZCER046                            
                                                                                
                                                                                
 CROP           : Maize            CULTIVAR : PIO 30F35HRB_    ECOTYPE :IB0001  
 STARTING DATE  : MAY  8 2014                                                   
 PLANTING DATE  : MAY 23 2014        PLANTS/m2 :  6.2     ROW SPACING :  80.cm  
 WEATHER        : CCCR   2014                                                   
 SOIL           : CCCERE2017     TEXTURE : CL    -   Suelo Cerete Calibracio    
 SOIL INITIAL C : DEPTH:100cm EXTR. H2O: 82.9mm  NO3: 37.9kg/ha  NH4: 67.2kg/ha 
 WATER BALANCE  : RAINFED                                                       
 IRRIGATION     : NOT IRRIGATED                                                 
 NITROGEN BAL.  : SOIL-N & N-UPTAKE SIMULATION; NO N-FIXATION                   
 N-FERTILIZER   :      142 kg/ha IN     5 APPLICATIONS                          
 RESIDUE/MANURE : INITIAL :     0 kg/ha ;       0 kg/ha IN     0 APPLICATIONS   
 ENVIRONM. OPT. : DAYL=    0.00  SRAD=    0.00  TMAX=    0.00  TMIN=    0.00    
                  RAIN=    0.00  CO2 =    0.00  DEW =    0.00  WIND=    0.00    
 SIMULATION OPT : WATER   :Y  NITROGEN:Y  N-FIX:N  PHOSPH :N  PESTS  :N         
                  PHOTO   :C  ET      :R  INFIL:S  HYDROL :R  SOM    :G         
                  CO2 398ppm  NSWIT   :1  EVAP :S  SOIL   :2  STEMP  :D         
 MANAGEMENT OPT : PLANTING:R  IRRIG   :N  FERT :D  RESIDUE:R  HARVEST:M         
                  WEATHER :M  TILLAGE :N                                        
                                                                                
*SUMMARY OF SOIL AND GENETIC INPUT PARAMETERS                                   
                                                                                
   SOIL LOWER UPPER   SAT  EXTR  INIT   ROOT   BULK     pH    NO3    NH4    ORG 
  DEPTH LIMIT LIMIT    SW    SW    SW   DIST   DENS                          C  
   cm   cm3/cm3    cm3/cm3    cm3/cm3         g/cm3         ugN/g  ugN/g     %  
------------------------------------------------------------------------------- 
  0-  5 0.313 0.407 0.502 0.094 0.364   1.00   1.53   7.00   3.78   4.42   1.32 
  5- 15 0.313 0.407 0.502 0.094 0.364   1.00   1.53   7.00   3.78   4.42   1.32 
 15- 26 0.313 0.407 0.502 0.094 0.364   1.00   1.53   7.00   3.78   4.42   1.32 
 26- 51 0.318 0.397 0.511 0.079 0.372   0.37   1.49   7.60   2.27   4.49   0.44 
 51- 75 0.318 0.397 0.511 0.079 0.373   0.37   1.49   7.60   1.98   4.50   0.44 
 75-100 0.318 0.397 0.511 0.079 0.373   0.37   1.49   7.60   1.98   4.50   0.44 
                                                                                
TOT-100  31.7  40.0  50.9   8.3  37.0  <--cm   -  kg/ha-->   37.9   67.2 101024 
SOIL ALBEDO    : 0.09      EVAPORATION LIMIT : 6.00         MIN. FACTOR  : 1.00 
RUNOFF CURVE # :73.00      DRAINAGE RATE     : 0.05         FERT. FACTOR : 1.00 
                                                                                
 Maize      CULTIVAR :000000-PIO 30F35HRB_      ECOTYPE :IB0001                 
 P1     : 180.00  P2     : 0.3000  P5     : 850.00                              
 G2     : 800.00  G3     :  6.000  PHINT  : 40.000                              


*SIMULATED CROP AND SOIL STATUS AT MAIN DEVELOPMENT STAGES

 RUN NO.     8     P8                      

        CROP GROWTH     BIOMASS         LEAF   CROP N     STRESS      STRESS                                           
   DATE  AGE STAGE        kg/ha    LAI   NUM  kg/ha  %   H2O  Nitr Phos1 Phos2  RSTG                                   
 ------  --- ----------   -----  -----  ----  ---  ---  ----  ----  ----  ----  ----                                   
  8 MAY    0 Start Sim        0   0.00   0.0    0  0.0  0.00  0.00  0.00  0.00     7
 23 MAY    0 Sowing           0   0.00   0.0    0  0.0  0.00  0.00  0.00  0.00     8
 24 MAY    1 Germinate        0   0.00   0.0    0  0.0  0.00  0.00  0.00  0.00     9
 28 MAY    5 Emergence       25   0.00   2.3    1  4.4  0.00  0.01  0.00  0.00     1
  6 JUN   14 End Juveni      62   0.13   7.4    2  3.9  0.35  0.00  0.00  0.00     2
 13 JUN   21 Floral Ini      69   0.10  11.0    3  4.8  0.94  0.00  0.00  0.00     3
 11 JUL   49 75% Silkin    2890   1.46  22.5   59  2.0  0.22  0.00  0.00  0.00     4
 20 JUL   58 Beg Gr Fil    4407   1.36  22.5   59  1.3  0.22  0.00  0.00  0.00     5
 20 AUG   89 End Gr Fil    6760   0.72  22.5   72  1.1  0.37  0.00  0.00  0.00     6
 22 AUG   91 Maturity      6760   0.72  22.5   72  1.1  0.00  0.00  0.00  0.00    10
 22 AUG   91 Harvest       6760   0.72  22.5   72  1.1  0.00  0.00  0.00  0.00    10


*MAIN GROWTH AND DEVELOPMENT VARIABLES

@     VARIABLE                                         SIMULATED     MEASURED
      --------                                         ---------     --------
      Anthesis day (dap)                                      49           47
      Physiological maturity day (dap)                        91          103
      Yield at harvest maturity (kg [dm]/ha)                2412         8504
      Number at maturity (no/m2)                            1893         3027
      Unit wt at maturity (g [dm]/unit)                   0.1275        0.281
      Number at maturity (no/unit)                         305.2          484
      Tops weight at maturity (kg [dm]/ha)                  6760        20115
      By-product produced (stalk) at maturity (kg[dm]/ha    4375         7313
      Leaf area index, maximum                              1.46          -99
      Harvest index at maturity                            0.357         0.42
      Grain N at maturity (kg/ha)                             44          -99
      Tops N at maturity (kg/ha)                              72          -99
      Stem N at maturity (kg/ha)                              28          -99
      Grain N at maturity (%)                                1.8          -99
      Tops weight at anthesis (kg [dm]/ha)                  2797          -99
      Tops N at anthesis (kg/ha)                              59          -99
      Leaf number per stem at maturity                     22.55           20
      Emergence day (dap)                                      5          -99


*ENVIRONMENTAL AND STRESS FACTORS

 |-----Development Phase------|--------------------------------------Environment--------------------------------------|-----------------Stress-----------------|
                              |---------------Average--------------|-----Cumulative-----|--------Count of days--------|          (0=Min, 1=Max Stress)         |
                         Time  Temp  Temp  Temp Solar Photop                Evapo    Pot TMIN TMIN TMAX TMAX TMAX RAIN|----Water----|---Nitrogen--|-Phosphorus-|
                         Span   Max   Min  Mean   Rad  [day]    CO2   Rain  Trans     ET   <    <    >    >    >    >   Photo         Photo         Photo
                         days    øC    øC    øC MJ/m2     hr    ppm     mm     mm     mm  0øC  2øC 30øC 32øC 34øC  0mm  synth Growth  synth Growth  synth Growth
----------------------------------------------------------------------------------------------------------------------------------------------------------------
 Emergence-End Juvenile     9  32.3  23.9  28.1  14.3  24.00  398.4   18.0   18.8   37.6    0    0    9    7    0    4  0.165  0.253  0.002  0.006  0.000  0.000
 End Juvenil-Floral Init    7  32.1  24.4  28.2  15.8  24.00  398.4    0.0    9.4   32.0    0    0    7    2    0    0  0.892  0.929  0.001  0.003  0.000  0.000
 Floral Init-End Lf Grow   28  32.1  23.9  28.0  16.0  24.00  398.5  184.1  111.5  122.9    0    0   27   15    1   12  0.158  0.253  0.000  0.000  0.000  0.000
 End Lf Grth-Beg Grn Fil    9  31.9  24.0  28.0  18.0  24.00  398.6    4.7   39.6   42.4    0    0    9    4    0    1  0.065  0.129  0.000  0.000  0.000  0.000
 Grain Filling Phase       31  32.4  24.1  28.2  18.9  24.00  398.7  200.2  116.1  159.1    0    0   31   19    2   13  0.339  0.392  0.000  0.000  0.000  0.000


 Planting to Harvest       91  32.2  24.0  28.1  17.2  24.00  398.6  410.8  312.4  431.5    0    0   89   51    3   32  0.256  0.321  0.000  0.001  0.000  0.000
----------------------------------------------------------------------------------------------------------------------------------------------------------------


*Resource Productivity
 Growing season length:  91 days 

 Precipitation during growing season       410.8 mm[rain]
   Dry Matter Productivity                  1.65 kg[DM]/m3[rain]          =   16.5 kg[DM]/ha per mm[rain]
   Yield Productivity                       0.59 kg[grain yield]/m3[rain] =    5.9 kg[yield]/ha per mm[rain]

 Evapotranspiration during growing season  312.4 mm[ET]
   Dry Matter Productivity                  2.16 kg[DM]/m3[ET]            =   21.6 kg[DM]/ha per mm[ET]
   Yield Productivity                       0.77 kg[grain yield]/m3[ET]   =    7.7 kg[yield]/ha per mm[ET]

 Transpiration during growing season       122.4 mm[EP]
   Dry Matter Productivity                  5.53 kg[DM]/m3[EP]            =   55.3 kg[DM]/ha per mm[EP]
   Yield Productivity                       1.97 kg[grain yield]/m3[EP]   =   19.7 kg[yield]/ha per mm[EP]

 N applied during growing season            142. kg[N applied]/ha
   Dry Matter Productivity                  47.6 kg[DM]/kg[N applied]
   Yield Productivity                       17.0 kg[yield]/kg[N applied]

 N uptake during growing season               77 kg[N uptake]/ha
   Dry Matter Productivity                  87.8 kg[DM]/kg[N uptake]
   Yield Productivity                       31.3 kg[yield]/kg[N uptake]

--------------------------------------------------------------------------------------------------------------

                     Maize YIELD :     2412 kg/ha    [Dry weight] 

**************************************************************************************************************

*DSSAT Cropping System Model Ver. 4.6.1.000 -release      MAY 05, 2017; 11:09:11
                                                                                
*RUN   9        : P9                        MZCER046 0\000000    9              
 MODEL          : MZCER046 - Maize                                              
 EXPERIMENT     : 0\000000 BN Calibracion Cerete 2013                           
 DATA PATH      : C:\L\0\00000                                                  
 TREATMENT  9   : P9                        MZCER046                            
                                                                                
                                                                                
 CROP           : Maize            CULTIVAR : PIO 30F35HRB_    ECOTYPE :IB0001  
 STARTING DATE  : MAY 23 2014                                                   
 PLANTING DATE  : JUN  7 2014        PLANTS/m2 :  6.2     ROW SPACING :  80.cm  
 WEATHER        : CCCR   2014                                                   
 SOIL           : CCCERE2017     TEXTURE : CL    -   Suelo Cerete Calibracio    
 SOIL INITIAL C : DEPTH:100cm EXTR. H2O: 82.9mm  NO3: 37.9kg/ha  NH4: 67.2kg/ha 
 WATER BALANCE  : RAINFED                                                       
 IRRIGATION     : NOT IRRIGATED                                                 
 NITROGEN BAL.  : SOIL-N & N-UPTAKE SIMULATION; NO N-FIXATION                   
 N-FERTILIZER   :      142 kg/ha IN     5 APPLICATIONS                          
 RESIDUE/MANURE : INITIAL :     0 kg/ha ;       0 kg/ha IN     0 APPLICATIONS   
 ENVIRONM. OPT. : DAYL=    0.00  SRAD=    0.00  TMAX=    0.00  TMIN=    0.00    
                  RAIN=    0.00  CO2 =    0.00  DEW =    0.00  WIND=    0.00    
 SIMULATION OPT : WATER   :Y  NITROGEN:Y  N-FIX:N  PHOSPH :N  PESTS  :N         
                  PHOTO   :C  ET      :R  INFIL:S  HYDROL :R  SOM    :G         
                  CO2 398ppm  NSWIT   :1  EVAP :S  SOIL   :2  STEMP  :D         
 MANAGEMENT OPT : PLANTING:R  IRRIG   :N  FERT :D  RESIDUE:R  HARVEST:M         
                  WEATHER :M  TILLAGE :N                                        
                                                                                
*SUMMARY OF SOIL AND GENETIC INPUT PARAMETERS                                   
                                                                                
   SOIL LOWER UPPER   SAT  EXTR  INIT   ROOT   BULK     pH    NO3    NH4    ORG 
  DEPTH LIMIT LIMIT    SW    SW    SW   DIST   DENS                          C  
   cm   cm3/cm3    cm3/cm3    cm3/cm3         g/cm3         ugN/g  ugN/g     %  
------------------------------------------------------------------------------- 
  0-  5 0.313 0.407 0.502 0.094 0.364   1.00   1.53   7.00   3.78   4.42   1.32 
  5- 15 0.313 0.407 0.502 0.094 0.364   1.00   1.53   7.00   3.78   4.42   1.32 
 15- 26 0.313 0.407 0.502 0.094 0.364   1.00   1.53   7.00   3.78   4.42   1.32 
 26- 51 0.318 0.397 0.511 0.079 0.372   0.37   1.49   7.60   2.27   4.49   0.44 
 51- 75 0.318 0.397 0.511 0.079 0.373   0.37   1.49   7.60   1.98   4.50   0.44 
 75-100 0.318 0.397 0.511 0.079 0.373   0.37   1.49   7.60   1.98   4.50   0.44 
                                                                                
TOT-100  31.7  40.0  50.9   8.3  37.0  <--cm   -  kg/ha-->   37.9   67.2 101024 
SOIL ALBEDO    : 0.09      EVAPORATION LIMIT : 6.00         MIN. FACTOR  : 1.00 
RUNOFF CURVE # :73.00      DRAINAGE RATE     : 0.05         FERT. FACTOR : 1.00 
                                                                                
 Maize      CULTIVAR :000000-PIO 30F35HRB_      ECOTYPE :IB0001                 
 P1     : 180.00  P2     : 0.3000  P5     : 850.00                              
 G2     : 800.00  G3     :  6.000  PHINT  : 40.000                              


*SIMULATED CROP AND SOIL STATUS AT MAIN DEVELOPMENT STAGES

 RUN NO.     9     P9                      

        CROP GROWTH     BIOMASS         LEAF   CROP N     STRESS      STRESS                                           
   DATE  AGE STAGE        kg/ha    LAI   NUM  kg/ha  %   H2O  Nitr Phos1 Phos2  RSTG                                   
 ------  --- ----------   -----  -----  ----  ---  ---  ----  ----  ----  ----  ----                                   
 23 MAY    0 Start Sim        0   0.00   0.0    0  0.0  0.00  0.00  0.00  0.00     7
  7 JUN    0 Sowing           0   0.00   0.0    0  0.0  0.00  0.00  0.00  0.00     8
  8 JUN    1 Germinate        0   0.00   0.0    0  0.0  0.00  0.00  0.00  0.00     9
 12 JUN    5 Emergence       25   0.00   2.3    1  4.4  0.00  0.01  0.00  0.00     1
 21 JUN   14 End Juveni      97   0.21   7.4    3  2.9  0.09  0.00  0.00  0.00     2
 28 JUN   21 Floral Ini     351   0.63  11.0   13  3.6  0.06  0.00  0.00  0.00     3
 26 JUL   49 75% Silkin    5475   2.87  22.5  119  2.2  0.22  0.00  0.00  0.00     4
  4 AUG   58 Beg Gr Fil    5693   2.07  22.5  119  2.1  0.81  0.00  0.00  0.00     5
  4 SEP   89 End Gr Fil    7073   1.44  22.5  119  1.7  0.00  0.00  0.00  0.00     6
  6 SEP   91 Maturity      7073   1.44  22.5  119  1.7  0.00  0.00  0.00  0.00    10
  6 SEP   91 Harvest       7073   1.44  22.5  119  1.7  0.00  0.00  0.00  0.00    10


*MAIN GROWTH AND DEVELOPMENT VARIABLES

@     VARIABLE                                         SIMULATED     MEASURED
      --------                                         ---------     --------
      Anthesis day (dap)                                      49           45
      Physiological maturity day (dap)                        91          103
      Yield at harvest maturity (kg [dm]/ha)                1404        10153
      Number at maturity (no/m2)                             900         3110
      Unit wt at maturity (g [dm]/unit)                   0.1561        0.326
      Number at maturity (no/unit)                         145.1          498
      Tops weight at maturity (kg [dm]/ha)                  7073        22004
      By-product produced (stalk) at maturity (kg[dm]/ha    5725         8732
      Leaf area index, maximum                              3.19          -99
      Harvest index at maturity                            0.199         0.46
      Grain N at maturity (kg/ha)                             25          -99
      Tops N at maturity (kg/ha)                             119          -99
      Stem N at maturity (kg/ha)                              94          -99
      Grain N at maturity (%)                                1.8          -99
      Tops weight at anthesis (kg [dm]/ha)                  5398          -99
      Tops N at anthesis (kg/ha)                             119          -99
      Leaf number per stem at maturity                     22.49           20
      Emergence day (dap)                                      5          -99


*ENVIRONMENTAL AND STRESS FACTORS

 |-----Development Phase------|--------------------------------------Environment--------------------------------------|-----------------Stress-----------------|
                              |---------------Average--------------|-----Cumulative-----|--------Count of days--------|          (0=Min, 1=Max Stress)         |
                         Time  Temp  Temp  Temp Solar Photop                Evapo    Pot TMIN TMIN TMAX TMAX TMAX RAIN|----Water----|---Nitrogen--|-Phosphorus-|
                         Span   Max   Min  Mean   Rad  [day]    CO2   Rain  Trans     ET   <    <    >    >    >    >   Photo         Photo         Photo
                         days    øC    øC    øC MJ/m2     hr    ppm     mm     mm     mm  0øC  2øC 30øC 32øC 34øC  0mm  synth Growth  synth Growth  synth Growth
----------------------------------------------------------------------------------------------------------------------------------------------------------------
 Emergence-End Juvenile     9  31.5  24.2  27.8  14.9  24.00  398.5   69.0   33.0   39.4    0    0    8    3    0    4  0.077  0.089  0.002  0.005  0.000  0.000
 End Juvenil-Floral Init    7  32.2  24.1  28.1  14.6  24.00  398.5   46.0   29.4   29.4    0    0    7    5    0    3  0.000  0.057  0.001  0.002  0.000  0.000
 Floral Init-End Lf Grow   28  32.2  23.8  28.0  18.9  24.00  398.6   84.5  118.7  136.7    0    0   28   15    1    8  0.123  0.198  0.000  0.000  0.000  0.000
 End Lf Grth-Beg Grn Fil    9  32.1  24.1  28.1  16.3  24.00  398.7    3.7   14.8   37.2    0    0    9    3    0    3  0.692  0.795  0.000  0.000  0.000  0.000
 Grain Filling Phase       31  32.4  23.9  28.2  18.9  23.35  398.8  231.9  146.7  151.4    0    0   30   21    2   14  0.028  0.029  0.000  0.000  0.000  0.000


 Planting to Harvest       91  32.2  23.9  28.1  17.6  23.65  398.6  459.1  357.9  422.8    0    0   89   50    4   33  0.124  0.163  0.000  0.001  0.000  0.000
----------------------------------------------------------------------------------------------------------------------------------------------------------------


*Resource Productivity
 Growing season length:  91 days 

 Precipitation during growing season       459.1 mm[rain]
   Dry Matter Productivity                  1.54 kg[DM]/m3[rain]          =   15.4 kg[DM]/ha per mm[rain]
   Yield Productivity                       0.31 kg[grain yield]/m3[rain] =    3.1 kg[yield]/ha per mm[rain]

 Evapotranspiration during growing season  357.9 mm[ET]
   Dry Matter Productivity                  1.98 kg[DM]/m3[ET]            =   19.8 kg[DM]/ha per mm[ET]
   Yield Productivity                       0.39 kg[grain yield]/m3[ET]   =    3.9 kg[yield]/ha per mm[ET]

 Transpiration during growing season       214.3 mm[EP]
   Dry Matter Productivity                  3.30 kg[DM]/m3[EP]            =   33.0 kg[DM]/ha per mm[EP]
   Yield Productivity                       0.66 kg[grain yield]/m3[EP]   =    6.6 kg[yield]/ha per mm[EP]

 N applied during growing season            142. kg[N applied]/ha
   Dry Matter Productivity                  49.8 kg[DM]/kg[N applied]
   Yield Productivity                        9.9 kg[yield]/kg[N applied]

 N uptake during growing season              128 kg[N uptake]/ha
   Dry Matter Productivity                  55.3 kg[DM]/kg[N uptake]
   Yield Productivity                       11.0 kg[yield]/kg[N uptake]

--------------------------------------------------------------------------------------------------------------

                     Maize YIELD :     1404 kg/ha    [Dry weight] 

**************************************************************************************************************
