*GROWTH ASPECTS OUTPUT FILE

*DSSAT Cropping System Model Ver. 4.6.1.000 -release      MAY 05, 2017; 11:09:10
                                                                                
*RUN   1        : P1                        MZCER046 0\000000    1              
 MODEL          : MZCER046 - Maize                                              
 EXPERIMENT     : 0\000000 BN Calibracion Cerete 2013                           
 DATA PATH      : C:\L\0\00000                                                  
 TREATMENT  1   : P1                        MZCER046                            
  
!                                                                                                                                                                                                                                      Root Dens. (cm/cm3) by soil depth (cm):
!                                                                                                                                                                                                                                      0-5    5-15   15-26   26-51   51-75  75-100
@YEAR DOY   DAS   DAP   L#SD   GSTD   LAID   LWAD   SWAD   GWAD   RWAD   VWAD   CWAD   G#AD   GWGD   HIAD   PWAD   P#AD   WSPD   WSGD   NSTD   EWSD  PST1A  PST2A   KSTD   LN%D   SH%D   HIPD   PWDD   PWTD     SLAD   CHTD   CWID   RDPD    RL1D    RL2D    RL3D    RL4D    RL5D    RL6D   CDAD   LDAD   SDAD   SNW0C   SNW1C  DTTD
 2013 127    16     0    0.0      0   0.00      0      0      0      0      0      0      0    0.0  0.000      0      0  0.000  0.000  0.000  0.000  0.000  0.000  0.000   0.00   0.00   0.00      0      0      0.0   0.00   0.00   0.05    0.00    0.00    0.00    0.00    0.00    0.00      0      0      0       0       0 20.20
 2013 128    17     1    0.0      0   0.00      0      0      0      0      0      0      0    0.0  0.000      0      0  0.000  0.000  0.000  0.000  0.000  0.000  0.000   0.00   0.00   0.00      0      0      0.0   0.00   0.00   0.08    0.00    0.00    0.00    0.00    0.00    0.00      0      0      0       0       0 21.03
 2013 129    18     2    0.0      0   0.00      0      0      0      0      0      0      0    0.0  0.000      0      0  0.000  0.000  0.000  0.000  0.000  0.000  0.000   0.00   0.00   0.00      0      0      0.0   0.00   0.00   0.11    0.00    0.00    0.00    0.00    0.00    0.00      0      0      0       0       0 21.12
 2013 130    19     3    0.0      0   0.00      0      0      0      0      0      0      0    0.0  0.000      0      0  0.000  0.000  0.000  0.000  0.000  0.000  0.000   0.00   0.00   0.00      0      0      0.0   0.00   0.00   0.14    0.00    0.00    0.00    0.00    0.00    0.00      0      0      0       0       0 20.06
 2013 131    20     4    0.0      0   0.00      0      0      0      0      0      0      0    0.0  0.000      0      0  0.000  0.000  0.000  0.000  0.000  0.000  0.000   0.00   0.00   0.00      0      0      0.0   0.00   0.00   0.18    0.00    0.00    0.00    0.00    0.00    0.00      0      0      0       0       0 21.63
 2013 132    21     5    2.0      1   0.01     12     12      0     12     25     25      0    0.0  0.000      0      0  0.000  0.000  0.012  0.000  0.000  0.000  0.000   4.40   0.00   0.00      0      0     42.4   0.00   0.00   0.20    0.25    0.12    0.03    0.00    0.00    0.00      0      0      0       0       0 22.42
 2013 133    22     6    3.0      1   0.01     12     12      0     13     25     25      0    0.0  0.000      0      0  0.000  0.000  0.006  0.000  0.000  0.000  0.000   4.40   0.00   0.00      0      0     85.4   0.01   0.00   0.22    0.25    0.13    0.03    0.00    0.00    0.00      0      0      0       0       0 21.34
 2013 134    23     7    3.0      1   0.02     12     12      0     14     25     25      0    0.0  0.000      0      0  0.000  0.000  0.000  0.000  0.000  0.000  0.000   4.40   0.00   0.00      0      0    135.1   0.01   0.00   0.24    0.26    0.13    0.03    0.00    0.00    0.00      0      0      0       0       0 21.40
 2013 135    24     8    4.0      1   0.04     12     12      0     15     25     25      0    0.0  0.000      0      0  0.000  0.000  0.000  0.000  0.000  0.000  0.000   4.40   0.00   0.00      0      0    314.6   0.02   0.00   0.26    0.27    0.14    0.04    0.00    0.00    0.00      0      0      0       0       0 21.46
 2013 136    25     9    4.0      1   0.07     21     12      0     16     34     34      0    0.0  0.000      0      0  0.000  0.000  0.000  0.000  0.000  0.000  0.000   3.22   0.00   0.00      0      0    307.3   0.04   0.00   0.28    0.28    0.15    0.05    0.00    0.00    0.00      0      0      0       0       0 21.53
 2013 137    26    10    5.0      1   0.10     35     12      0     17     48     48      0    0.0  0.000      0      0  0.000  0.000  0.000  0.000  0.000  0.000  0.000   2.92   0.00   0.00      0      0    277.6   0.05   0.00   0.29    0.29    0.16    0.05    0.00    0.00    0.00      0      0      0       0       0 21.45
 2013 138    27    11    6.0      1   0.13     52     12      0     20     64     64      0    0.0  0.000      0      0  0.000  0.000  0.000  0.000  0.000  0.000  0.000   3.02   0.00   0.00      0      0    257.0   0.07   0.00   0.30    0.30    0.17    0.07    0.00    0.00    0.00      0      0      0       0       0 20.02
 2013 139    28    12    6.0      1   0.18     68     12      0     22     81     81      0    0.0  0.000      0      0  0.000  0.000  0.000  0.000  0.000  0.000  0.000   3.15   0.00   0.00      0      0    259.2   0.10   0.00   0.31    0.32    0.19    0.09    0.00    0.00    0.00      0      0      0       0       0 20.64
 2013 140    29    13    7.0      1   0.21     83     12      0     25     95     95      0    0.0  0.000      0      0  0.000  0.000  0.000  0.425  0.000  0.000  0.000   3.29   0.00   0.00      0      0    248.8   0.11   0.00   0.33    0.34    0.21    0.10    0.00    0.00    0.00      0      0      0       0       0 21.09
 2013 141    30    14    7.0      2   0.24    101     12      0     30    113    113      0    0.0  0.000      0      0  0.000  0.000  0.000  0.452  0.000  0.000  0.000   3.22   0.00   0.00      0      0    238.8   0.13   0.00   0.35    0.38    0.25    0.13    0.00    0.00    0.00      0      0      0       0       1 20.90
 2013 142    31    15    8.0      2   0.27    116     12      0     36    128    128      0    0.0  0.000      0      0  0.000  0.000  0.010  0.622  0.000  0.000  0.000   3.45   0.00   0.00      0      0    232.1   0.14   0.00   0.38    0.42    0.29    0.17    0.01    0.00    0.00      0      0      0       0       1 20.67
 2013 143    32    16    8.0      2   0.31    137     12      0     48    149    149      0    0.0  0.000      0      0  0.000  0.267  0.000  0.515  0.000  0.000  0.000   3.30   0.00   0.00      0      0    224.1   0.17   0.00   0.40    0.50    0.37    0.24    0.02    0.00    0.00      0      0      0       0       1 20.17
 2013 144    33    17    9.0      2   0.36    169     12      0     53    182    182      0    0.0  0.000      0      0  0.000  0.000  0.000  0.243  0.000  0.000  0.000   3.12   0.00   0.00      0      0    214.4   0.20   0.00   0.43    0.54    0.41    0.28    0.03    0.00    0.00      0      0      0       0       1 20.61
 2013 145    34    18    9.0      2   0.46    226     12      0     64    238    238      0    0.0  0.000      0      0  0.000  0.000  0.000  0.060  0.000  0.000  0.000   3.78   0.00   0.00      0      0    202.0   0.25   0.00   0.45    0.61    0.48    0.34    0.04    0.00    0.00      0      0      0       0       1 20.34
 2013 146    35    19   10.0      2   0.57    300     12      0     83    312    312      0    0.0  0.000      0      0  0.000  0.000  0.000  0.000  0.000  0.000  0.000   3.74   0.00   0.00      0      0    190.4   0.31   0.00   0.48    0.74    0.60    0.44    0.07    0.00    0.00      0      0      0       0       2 21.30
 2013 147    36    20   10.0      2   0.67    367     12      0     94    380    380      0    0.0  0.000      0      0  0.000  0.000  0.000  0.000  0.000  0.000  0.000   3.69   0.00   0.00      0      0    182.5   0.36   0.00   0.50    0.82    0.67    0.50    0.08    0.00    0.00      0      0      0       0       2 20.21
 2013 148    37    21   11.0      3   0.79    451     13      0    124    464    464      0    0.0  0.000      0      0  0.000  0.000  0.000  0.068  0.000  0.000  0.000   3.61   0.00   0.00      0      0    174.6   0.42   0.00   0.52    1.02    0.86    0.66    0.13    0.00    0.00      0      0      0       0       3 19.88
 2013 149    38    22   11.0      3   0.90    533     14      0    128    547    547      0    0.0  0.000      0      0  0.000  0.000  0.000  0.035  0.000  0.000  0.000   3.54   0.00   0.00      0      0    169.5   0.49   0.00   0.55    1.04    0.88    0.68    0.14    0.00    0.00      0      0      0       0       3 19.85
 2013 150    39    23   12.0      3   1.07    659     19      0    161    678    678      0    0.0  0.000      0      0  0.000  0.000  0.000  0.053  0.000  0.000  0.000   3.48   0.00   0.00      0      0    163.1   0.58   0.00   0.57    1.26    1.09    0.84    0.19    0.01    0.00      0      0      0       0       4 20.00
 2013 151    40    24   12.0      3   1.18    740     25      0    165    765    765      0    0.0  0.000      0      0  0.000  0.000  0.000  0.126  0.000  0.000  0.000   3.42   0.00   0.00      0      0    159.6   0.64   0.00   0.60    1.28    1.11    0.86    0.20    0.01    0.00      0      0      0       0       5 20.05
 2013 152    41    25   13.0      3   1.36    879     41      0    204    920    920      0    0.0  0.000      0      0  0.000  0.000  0.000  0.015  0.000  0.000  0.000   3.36   0.00   0.00      0      0    154.6   0.73   0.00   0.62    1.53    1.34    1.04    0.25    0.04    0.00      0      0      0       0       5 19.90
 2013 153    42    26   13.0      3   1.54   1023     65      0    247   1087   1087      0    0.0  0.000      0      0  0.000  0.033  0.000  0.012  0.000  0.000  0.000   3.30   0.00   0.00      0      0    150.3   0.83   0.00   0.65    1.81    1.60    1.23    0.32    0.07    0.00      0      0      0       0       6 20.30
 2013 154    43    27   14.0      3   1.71   1167     96      0    306   1263   1263      0    0.0  0.000      0      0  0.000  0.000  0.000  0.000  0.000  0.000  0.000   3.25   0.00   0.00      0      0    146.6   0.92   0.00   0.67    2.17    1.94    1.49    0.40    0.13    0.00      0      0      0       0       8 19.10
 2013 155    44    28   14.0      3   1.89   1317    139      0    334   1456   1456      0    0.0  0.000      0      0  0.000  0.000  0.000  0.000  0.000  0.000  0.000   3.20   0.00   0.00      0      0    143.2   1.02   0.00   0.69    2.33    2.09    1.62    0.44    0.16    0.00      0      0      0       0       9 19.30
 2013 156    45    29   15.0      3   2.07   1478    198      0    374   1676   1676      0    0.0  0.000      0      0  0.000  0.000  0.000  0.000  0.000  0.000  0.000   3.14   0.00   0.00      0      0    140.1   1.12   0.00   0.72    2.55    2.29    1.81    0.50    0.20    0.00      0      0      0       0      11 20.30
 2013 157    46    30   15.0      3   2.19   1581    244      0    440   1825   1825      0    0.0  0.000      0      0  0.000  0.000  0.000  0.352  0.000  0.000  0.000   3.09   0.00   0.00      0      0    138.3   1.18   0.00   0.74    2.92    2.63    2.12    0.60    0.28    0.00      0      0      0       0      13 19.50
 2013 158    47    31   16.0      3   2.35   1728    324      0    460   2052   2052      0    0.0  0.000      0      0  0.000  0.000  0.000  0.120  0.000  0.000  0.000   3.04   0.00   0.00      0      0    136.0   1.27   0.00   0.77    3.03    2.73    2.21    0.63    0.30    0.00      0      0      0       0      15 20.30
 2013 159    48    32   16.0      3   2.44   1812    379      0    466   2191   2191      0    0.0  0.000      0      0  0.000  0.000  0.000  0.381  0.000  0.000  0.000   2.98   0.00   0.00      0      0    134.7   1.32   0.00   0.79    3.05    2.75    2.23    0.64    0.31    0.00      0      0      0       0      17 20.45
 2013 160    49    33   17.0      3   2.57   1930    470      0    490   2399   2399      0    0.0  0.000      0      0  0.000  0.000  0.000  0.349  0.000  0.000  0.000   2.93   0.00   0.00      0      0    133.1   1.38   0.00   0.82    3.18    2.87    2.33    0.68    0.34    0.01      0      0      0       0      20 21.35
 2013 161    50    34   17.0      3   2.66   2017    548      0    497   2564   2564      0    0.0  0.000      0      0  0.000  0.000  0.000  0.263  0.000  0.000  0.000   2.88   0.00   0.00      0      0    132.0   1.43   0.00   0.84    3.21    2.90    2.36    0.69    0.35    0.01      0      0      0       0      22 19.70
 2013 162    51    35   18.0      3   2.78   2124    659      0    506   2783   2783      0    0.0  0.000      0      0  0.000  0.000  0.000  0.188  0.000  0.000  0.000   2.83   0.00   0.00      0      0    130.7   1.50   0.00   0.87    3.26    2.95    2.39    0.70    0.36    0.02      0      0      0       0      25 20.90
 2013 163    52    36   18.0      3   2.91   2252    810      0    519   3062   3062      0    0.0  0.000      0      0  0.000  0.000  0.000  0.067  0.000  0.000  0.000   2.78   0.00   0.00      0      0    129.2   1.57   0.00   0.89    3.33    3.01    2.44    0.71    0.38    0.03      0      0      0       0      27 19.90
 2013 164    53    37   19.0      3   3.11   2451    883      0    532   3334   3335      0    0.0  0.000      1      0  0.000  0.000  0.000  0.000  0.000  0.000  0.000   2.74   0.00   0.00      0      1    127.1   1.60   0.00   0.91    3.39    3.06    2.49    0.73    0.39    0.04      0      0      0       0      30 20.30
 2013 165    54    38   19.0      3   3.20   2534    983      0    539   3518   3520      0    0.0  0.000      3      0  0.000  0.000  0.000  0.000  0.000  0.000  0.000   2.69   0.00   0.00      0      3    126.3   1.60   0.00   0.94    3.43    3.09    2.51    0.74    0.40    0.05      0      0      0       0      32 20.80
 2013 166    55    39   20.0      3   3.30   2635   1144      0    552   3779   3787      0    0.0  0.000      8      0  0.000  0.000  0.000  0.000  0.000  0.000  0.000   2.65   0.00   0.00      0      8    125.3   1.60   0.00   0.96    3.48    3.14    2.55    0.75    0.41    0.06      0      0      0       0      35 19.90
 2013 167    56    40   20.0      3   3.42   2754   1365      0    569   4119   4142      0    0.0  0.000     22      0  0.000  0.000  0.000  0.000  0.000  0.000  0.000   2.61   0.00   0.01      0     22    124.2   1.60   0.00   0.99    3.57    3.22    2.61    0.78    0.43    0.09      0      0      0       0      38 20.05
 2013 168    57    41   21.0      3   3.50   2829   1526      0    580   4356   4388      0    0.0  0.000     33      0  0.000  0.000  0.000  0.000  0.000  0.000  0.000   2.56   0.00   0.01      0     33    123.6   1.60   0.00   1.00    3.62    3.26    2.64    0.79    0.44    0.10      0      0      0       0      41 20.95
 2013 169    58    42   21.0      3   3.60   2934   1756      0    597   4689   4758      0    0.0  0.000     68      0  0.000  0.000  0.000  0.000  0.000  0.000  0.000   2.53   0.00   0.01      0     68    122.7   1.60   0.00   1.00    3.70    3.33    2.69    0.81    0.47    0.13      0      0      0       0      44 20.75
 2013 170    59    43   22.0      3   3.69   3023   1954      0    613   4977   5090      0    0.0  0.000    113      0  0.000  0.000  0.000  0.000  0.000  0.000  0.000   2.49   0.00   0.02      0    113    122.0   1.60   0.00   1.00    3.78    3.39    2.74    0.83    0.48    0.15      0      0      0       0      46 18.60
 2013 171    60    44   22.0      3   3.73   3063   2059      0    618   5122   5249      0    0.0  0.000    126      0  0.000  0.000  0.000  0.000  0.000  0.000  0.000   2.43   0.00   0.02      0    126    121.7   1.60   0.00   1.00    3.81    3.41    2.75    0.84    0.49    0.16      0      0      0       0      50 20.40
 2013 172    61    45   23.0      3   3.79   3132   2207      0    631   5339   5532      0    0.0  0.000    193      0  0.000  0.129  0.000  0.000  0.000  0.000  0.000   2.41   0.00   0.03      0    193    121.2   1.60   0.00   1.00    3.87    3.46    2.78    0.86    0.51    0.18      0      0      0       0      53 20.10
 2013 173    62    46   23.0      3   3.80   3182   2260      0    680   5441   5736      0    0.0  0.000    294      0  0.233  0.489  0.000  0.000  0.000  0.000  0.000   2.41   0.00   0.05      0    294    119.4   1.60   0.00   1.00    4.00    3.65    2.92    0.92    0.56    0.25      0      0      0       0      56 20.90
 2013 174    63    47   23.0      3   3.85   3235   2346      0    689   5581   5955      0    0.0  0.000    373      0  0.000  0.310  0.000  0.000  0.000  0.000  0.000   2.35   0.00   0.06      0    373    119.0   1.60   0.00   1.00    4.00    3.69    2.94    0.93    0.58    0.27      0      0      0       0      56 21.10
 2013 175    64    48   23.0      3   3.90   3284   2438      0    697   5722   6155      0    0.0  0.000    433      0  0.000  0.000  0.000  0.000  0.000  0.000  0.000   2.29   0.00   0.07      0    433    118.7   1.60   0.00   1.00    4.00    3.72    2.96    0.94    0.59    0.28      0      0      0       0      56 19.10
 2013 176    65    49   23.0      3   3.94   3326   2517      0    703   5843   6326      0    0.0  0.000    484      0  0.000  0.000  0.000  0.000  0.000  0.000  0.000   2.25   0.00   0.08      0    484    118.4   1.60   0.00   1.00    4.00    3.74    2.97    0.95    0.59    0.29      0      0      0       0      56 19.00
 2013 177    66    50   23.0      4   3.78   3289   2648      0    717   5937   6694      0    0.0  0.000    757      0  0.000  0.000  0.000  0.000  0.000  0.000  0.000   2.30   0.00   0.11      0    757    115.1   1.60   0.00   1.00    4.00    3.80    3.01    0.97    0.61    0.32      0      0      0       0      59 20.25
 2013 178    67    51   23.0      4   3.76   3249   2720      0    725   5968   6926      0    0.0  0.000    957      0  0.000  0.000  0.000  0.000  0.000  0.000  0.000   2.29   0.00   0.14      0    957    115.8   1.60   0.00   1.00    4.00    3.83    3.04    0.98    0.62    0.33      0      0      0       0      59 21.63
 2013 179    68    52   23.0      4   3.74   3205   2770      0    732   5976   7108      0    0.0  0.000   1132      0  0.000  0.000  0.000  0.000  0.000  0.000  0.000   2.29   0.00   0.16      0   1132    116.8   1.60   0.00   1.00    3.99    3.84    3.06    0.99    0.63    0.34      0      0      0       0      59 18.55
 2013 180    69    53   23.0      4   3.73   3159   2863      0    742   6022   7386      0    0.0  0.000   1364      0  0.000  0.000  0.000  0.114  0.000  0.000  0.000   2.27   0.00   0.18      0   1364    117.9   1.60   0.00   1.00    4.00    3.88    3.10    1.01    0.64    0.36      0      0      0       0      59 18.60
 2013 181    70    54   23.0      4   3.71   3109   2929      0    752   6038   7662      0    0.0  0.000   1624      0  0.000  0.000  0.000  0.035  0.000  0.000  0.000   2.26   0.00   0.21      0   1624    119.2   1.60   0.00   1.00    4.00    3.91    3.14    1.03    0.66    0.38      0      0      0       0      59 19.60
 2013 182    71    55   23.0      4   3.68   3056   3006      0    760   6062   7867      0    0.0  0.000   1805      0  0.000  0.000  0.000  0.171  0.000  0.000  0.000   2.25   0.00   0.23      0   1805    120.6   1.60   0.00   1.00    3.99    3.93    3.17    1.04    0.67    0.40      0      0      0       0      59 21.25
 2013 183    72    56   23.0      4   3.66   2999   3095      0    771   6094   8162      0    0.0  0.000   2068      0  0.000  0.000  0.000  0.129  0.000  0.000  0.000   2.24   0.00   0.25      0   2068    122.2   1.60   0.00   1.00    4.00    3.95    3.21    1.05    0.68    0.41      0      0      0       0      59 20.20
 2013 184    73    57   23.0      4   3.64   2939   3178      0    786   6117   8520      0    0.0  0.000   2403      0  0.000  0.000  0.000  0.073  0.000  0.000  0.000   2.23   0.00   0.28      0   2403    124.0   1.60   0.00   1.00    4.00    3.99    3.26    1.08    0.70    0.44      0      0      0       0      59 20.55
 2013 185    74    58   23.0      5   3.58   2939   3178    143    834   6117   8664   2960    4.8  0.017   2546      6  0.000  0.000  0.000  0.027  0.000  0.000  0.000   2.19   5.62   0.29      0   2546    121.8   1.60   0.00   1.00    4.00    4.00    3.42    1.14    0.76    0.50      0      0      0       0      59 20.55
 2013 186    75    59   23.0      5   3.57   2939   3178    315    886   6117   8836   2960   10.7  0.036   2718      6  0.000  0.000  0.000  0.000  0.000  0.000  0.000   2.14  11.59   0.31      0   2718    121.6   1.60   0.00   1.00    4.00    4.00    3.60    1.21    0.82    0.57      0      0      0       0      59 19.25
 2013 187    76    60   23.0      5   3.56   2939   3178    466    956   6117   8987   2960   15.8  0.052   2869      6  0.000  0.000  0.000  0.000  0.000  0.000  0.000   2.10  16.24   0.32      0   2869    121.2   1.60   0.00   1.00    4.00    4.00    3.84    1.31    0.90    0.66      0      0      0       0      59 20.20
 2013 188    77    61   23.0      5   3.55   2939   3178    605    983   6117   9125   2960   20.4  0.066   3008      6  0.000  0.000  0.000  0.000  0.000  0.000  0.000   2.06  20.11   0.33      0   3008    120.8   1.60   0.00   1.00    4.00    4.00    3.92    1.34    0.93    0.69      0      0      0       0      59 20.75
 2013 189    78    62   23.0      5   3.53   2939   3178    745   1028   6117   9265   2960   25.2  0.080   3148      6  0.000  0.000  0.000  0.000  0.000  0.000  0.000   2.02  23.66   0.34      0   3148    120.2   1.60   0.00   1.00    4.00    4.00    4.00    1.40    0.98    0.75      0      0      0       0      59 20.70
 2013 190    79    63   23.0      5   3.52   2939   3178    886   1093   6117   9406   2960   29.9  0.094   3289      6  0.000  0.000  0.000  0.000  0.000  0.000  0.000   1.98  26.93   0.35      0   3289    119.6   1.60   0.00   1.00    4.00    4.00    4.00    1.48    1.04    0.83      0      0      0       0      59 20.65
 2013 191    80    64   23.0      5   3.50   2939   3178   1059   1143   6117   9579   2960   35.8  0.111   3462      6  0.000  0.000  0.000  0.000  0.000  0.000  0.000   1.93  30.58   0.36      0   3462    119.0   1.60   0.00   1.00    4.00    4.00    4.00    1.53    1.09    0.89      0      0      0       0      59 19.20
 2013 192    81    65   23.0      5   3.47   2939   3178   1230   1161   6117   9750   2960   41.5  0.126   3633      6  0.000  0.000  0.000  0.028  0.000  0.000  0.000   1.88  33.85   0.37      0   3633    118.2   1.60   0.00   1.00    4.00    4.00    4.00    1.55    1.11    0.91      0      0      0       0      59 19.30
 2013 193    82    66   23.0      5   3.45   2939   3178   1404   1223   6117   9924   2960   47.4  0.141   3807      6  0.000  0.000  0.000  0.000  0.000  0.000  0.000   1.83  36.88   0.38      0   3807    117.4   1.60   0.00   1.00    4.00    4.00    4.00    1.62    1.17    0.98      0      0      0       0      59 19.15
 2013 194    83    67   23.0      5   3.42   2939   3178   1557   1277   6117  10078   2960   52.6  0.155   3960      6  0.000  0.000  0.000  0.000  0.000  0.000  0.000   1.78  39.32   0.39      0   3960    116.4   1.60   0.00   1.00    4.00    4.00    4.00    1.68    1.23    1.04      0      0      0       0      59 20.10
 2013 195    84    68   23.0      5   3.39   2939   3178   1718   1337   6117  10238   2960   58.1  0.168   4121      6  0.000  0.000  0.000  0.000  0.000  0.000  0.000   1.74  41.69   0.40      0   4121    115.3   1.60   0.00   1.00    4.00    4.00    4.00    1.75    1.29    1.11      0      0      0       0      59 19.75
 2013 196    85    69   23.0      5   3.35   2939   3178   1862   1363   6117  10383   2960   62.9  0.179   4266      6  0.000  0.000  0.000  0.000  0.000  0.000  0.000   1.70  43.66   0.41      0   4266    114.1   1.60   0.00   1.00    4.00    4.00    4.00    1.78    1.32    1.14      0      0      0       0      59 20.50
 2013 197    86    70   23.0      5   3.31   2939   3178   2001   1411   6117  10522   2960   67.6  0.190   4404      6  0.000  0.000  0.000  0.000  0.000  0.000  0.000   1.66  45.43   0.42      0   4404    112.7   1.60   0.00   1.00    4.00    4.00    4.00    1.84    1.36    1.19      0      0      0       0      59 20.75
 2013 198    87    71   23.0      5   3.27   2939   3178   2170   1435   6117  10690   2960   73.3  0.203   4573      6  0.000  0.000  0.000  0.000  0.000  0.000  0.000   1.61  47.45   0.43      0   4573    111.3   1.60   0.00   1.00    4.00    4.00    4.00    1.86    1.39    1.22      0      0      0       0      59 19.40
 2013 199    88    72   23.0      5   3.22   2939   3178   2331   1455   6117  10851   2960   78.8  0.215   4734      6  0.000  0.000  0.000  0.029  0.000  0.000  0.000   1.43  49.23   0.44      0   4734    109.7   1.60   0.00   1.00    4.00    4.00    4.00    1.88    1.41    1.24      0      0      0       0      66 19.75
 2013 200    89    73   23.0      5   3.17   2939   3178   2508   1502   6117  11029   2960   84.8  0.227   4912      6  0.000  0.000  0.000  0.000  0.000  0.000  0.000   1.42  51.07   0.45      0   4912    108.0   1.60   0.00   1.00    4.00    4.00    4.00    1.94    1.45    1.29      0      0      0       0      74 18.90
 2013 201    90    74   23.0      5   3.12   2939   3178   2650   1546   6117  11171   2960   89.6  0.237   5054      6  0.000  0.000  0.000  0.000  0.000  0.000  0.000   1.38  52.44   0.45      0   5054    106.0   1.60   0.00   1.00    4.00    4.00    4.00    1.99    1.50    1.34      0      0      0       0      81 20.60
 2013 202    91    75   23.0      5   3.06   2939   3178   2810   1597   6117  11331   2960   95.0  0.248   5213      6  0.000  0.000  0.000  0.000  0.000  0.000  0.000   1.36  53.90   0.46      0   5213    104.0   1.60   0.00   1.00    4.00    4.00    4.00    2.04    1.55    1.40      0      0      0       0      89 19.80
 2013 203    92    76   23.0      5   2.99   2939   3178   2968   1622   6117  11488   2960  100.3  0.258   5371      6  0.000  0.000  0.000  0.000  0.000  0.000  0.000   1.32  55.25   0.47      0   5371    101.7   1.60   0.00   1.00    4.00    4.00    4.00    2.07    1.57    1.43      0      0      0       0      97 19.90
 2013 204    93    77   23.0      5   2.92   2939   3178   3099   1672   6117  11619   2960  104.7  0.267   5502      6  0.000  0.000  0.000  0.000  0.000  0.000  0.000   1.29  56.32   0.47      0   5502     99.2   1.60   0.00   1.00    4.00    4.00    4.00    2.12    1.62    1.49      0      0      0       0     105 21.10
 2013 205    94    78   23.0      5   2.83   2939   3178   3226   1729   6117  11747   2960  109.0  0.275   5630      6  0.000  0.213  0.000  0.000  0.000  0.000  0.000   1.27  57.31   0.48      0   5630     96.4   1.60   0.00   1.00    4.00    4.00    4.00    2.19    1.68    1.55      0      0      0       0     113 21.25
 2013 206    95    79   23.0      5   2.75   2939   3178   3354   1767   6117  11875   2960  113.3  0.282   5757      6  0.058  0.372  0.000  0.000  0.000  0.000  0.000   1.24  58.26   0.48      0   5757     93.5   1.60   0.00   1.00    4.00    4.00    4.00    2.23    1.71    1.59      0      0      0       0     122 21.05
 2013 207    96    80   23.0      5   2.66   2939   3178   3504   1792   6117  12024   2960  118.4  0.291   5907      6  0.000  0.000  0.000  0.000  0.000  0.000  0.000   1.21  59.32   0.49      0   5907     90.4   1.60   0.00   1.00    4.00    4.00    4.00    2.26    1.74    1.62      0      0      0       0     131 20.25
 2013 208    97    81   23.0      5   2.57   2939   3178   3682   1793   6117  12202   2960  124.4  0.302   6085      6  0.000  0.000  0.000  0.077  0.000  0.000  0.000   1.18  60.50   0.50      0   6085     87.5   1.60   0.00   1.00    4.00    4.00    4.00    2.26    1.74    1.62      0      0      0       0     140 18.65
 2013 209    98    82   23.0      5   2.46   2939   3178   3809   1842   6117  12330   2960  128.7  0.309   6213      6  0.000  0.000  0.000  0.123  0.000  0.000  0.000   1.16  61.32   0.50      0   6213     83.8   1.60   0.00   1.00    4.00    4.00    4.00    2.31    1.79    1.67      0      0      0       0     149 21.25
 2013 210    99    83   23.0      5   2.36   2939   3178   3975   1868   6117  12495   2960  134.3  0.318   6378      6  0.000  0.000  0.000  0.161  0.000  0.000  0.000   1.14  62.32   0.51      0   6378     80.3   1.60   0.00   1.00    4.00    4.00    4.00    2.34    1.81    1.70      0      0      0       0     158 19.55
 2013 211   100    84   23.0      5   2.25   2939   3178   4151   1880   6117  12672   2960  140.3  0.328   6554      6  0.000  0.000  0.000  0.129  0.000  0.000  0.000   1.11  63.33   0.52      0   6554     76.7   1.60   0.00   1.00    4.00    4.00    4.00    2.35    1.82    1.71      0      0      0       0     167 19.05
 2013 212   101    85   23.0      5   2.13   2939   3178   4303   1899   6117  12824   2960  145.4  0.336   6706      6  0.000  0.000  0.000  0.098  0.000  0.000  0.000   1.09  64.16   0.52      0   6706     72.6   1.60   0.00   1.00    4.00    4.00    4.00    2.37    1.84    1.74      0      0      0       0     177 20.15
 2013 213   102    86   23.0      5   2.00   2939   3178   4435   1907   6117  12956   2960  149.9  0.342   6838      6  0.000  0.000  0.000  0.135  0.000  0.000  0.000   1.06  64.86   0.53      0   6838     68.1   1.60   0.00   1.00    4.00    4.00    4.00    2.38    1.85    1.74      0      0      0       0     186 21.05
 2013 214   103    87   23.0      5   1.87   2939   3178   4595   1922   6117  13115   2960  155.3  0.350   6998      6  0.000  0.000  0.000  0.044  0.000  0.000  0.000   1.04  65.66   0.53      0   6998     63.6   1.60   0.00   1.00    4.00    4.00    4.00    2.39    1.86    1.76      0      0      0       0     196 19.80
 2013 215   104    88   23.0      5   1.72   2939   3178   4730   1965   6117  13251   2960  159.8  0.357   7134      6  0.000  0.000  0.000  0.029  0.000  0.000  0.000   1.03  66.31   0.54      0   7134     58.6   1.60   0.00   1.00    4.00    4.00    4.00    2.44    1.90    1.81      0      0      0       0     205 20.90
 2013 216   105    89   23.0      5   1.58   2939   3178   4898   1972   6117  13418   2960  165.5  0.365   7301      6  0.000  0.000  0.000  0.000  0.000  0.000  0.000   1.00  67.08   0.54      0   7301     53.7   1.60   0.00   1.00    4.00    4.00    4.00    2.45    1.91    1.82      0      0      0       0     215 19.45
 2013 217   106    90   23.0      5   1.58   2939   3178   4898   1972   6117  13418   2960  165.5  0.365   7301      6  0.000  0.000  0.000  0.000  0.000  0.000  0.000   1.00  67.08   0.54      0   7301     53.7   1.60   0.00   1.00    4.00    4.00    4.00    2.46    1.92    1.82      0      0      0       0     215 19.05
 2013 218   107    91   23.0      5   1.58   2939   3178   4898   1972   6117  13418   2960  165.5  0.365   7301      6  0.000  0.000  0.000  0.000  0.000  0.000  0.000   1.00  67.08   0.54      0   7301     53.7   1.60   0.00   1.00    4.00    4.00    4.00    2.46    1.92    1.83      0      0      0       0     215 20.60
 2013 219   108    92   23.0      5   1.58   2939   3178   4898   1972   6117  13418   2960  165.5  0.365   7301      6  0.000  0.000  0.000  0.000  0.000  0.000  0.000   1.00  67.08   0.54      0   7301     53.7   1.60   0.00   1.00    4.00    4.00    4.00    2.47    1.93    1.84      0      0      0       0     215  0.00

*DSSAT Cropping System Model Ver. 4.6.1.000 -release      MAY 05, 2017; 11:09:10
                                                                                
*RUN   2        : P2                        MZCER046 0\000000    2              
 MODEL          : MZCER046 - Maize                                              
 EXPERIMENT     : 0\000000 BN Calibracion Cerete 2013                           
 DATA PATH      : C:\L\0\00000                                                  
 TREATMENT  2   : P2                        MZCER046                            
  
!                                                                                                                                                                                                                                      Root Dens. (cm/cm3) by soil depth (cm):
!                                                                                                                                                                                                                                      0-5    5-15   15-26   26-51   51-75  75-100
@YEAR DOY   DAS   DAP   L#SD   GSTD   LAID   LWAD   SWAD   GWAD   RWAD   VWAD   CWAD   G#AD   GWGD   HIAD   PWAD   P#AD   WSPD   WSGD   NSTD   EWSD  PST1A  PST2A   KSTD   LN%D   SH%D   HIPD   PWDD   PWTD     SLAD   CHTD   CWID   RDPD    RL1D    RL2D    RL3D    RL4D    RL5D    RL6D   CDAD   LDAD   SDAD   SNW0C   SNW1C  DTTD
 2013 141    16     0    0.0      0   0.00      0      0      0      0      0      0      0    0.0  0.000      0      0  0.000  0.000  0.000  0.000  0.000  0.000  0.000   0.00   0.00   0.00      0      0      0.0   0.00   0.00   0.05    0.00    0.00    0.00    0.00    0.00    0.00      0      0      0       0       0 20.90
 2013 142    17     1    0.0      0   0.00      0      0      0      0      0      0      0    0.0  0.000      0      0  0.000  0.000  0.000  0.000  0.000  0.000  0.000   0.00   0.00   0.00      0      0      0.0   0.00   0.00   0.08    0.00    0.00    0.00    0.00    0.00    0.00      0      0      0       0       0 20.67
 2013 143    18     2    0.0      0   0.00      0      0      0      0      0      0      0    0.0  0.000      0      0  0.000  0.000  0.000  0.000  0.000  0.000  0.000   0.00   0.00   0.00      0      0      0.0   0.00   0.00   0.11    0.00    0.00    0.00    0.00    0.00    0.00      0      0      0       0       0 20.17
 2013 144    19     3    0.0      0   0.00      0      0      0      0      0      0      0    0.0  0.000      0      0  0.000  0.000  0.000  0.000  0.000  0.000  0.000   0.00   0.00   0.00      0      0      0.0   0.00   0.00   0.14    0.00    0.00    0.00    0.00    0.00    0.00      0      0      0       0       0 20.61
 2013 145    20     4    0.0      0   0.00      0      0      0      0      0      0      0    0.0  0.000      0      0  0.000  0.000  0.000  0.000  0.000  0.000  0.000   0.00   0.00   0.00      0      0      0.0   0.00   0.00   0.17    0.00    0.00    0.00    0.00    0.00    0.00      0      0      0       0       0 20.34
 2013 146    21     5    2.0      1   0.00     12     12      0     12     25     25      0    0.0  0.000      0      0  0.000  0.000  0.012  0.000  0.000  0.000  0.000   4.40   0.00   0.00      0      0     39.9   0.00   0.00   0.19    0.25    0.12    0.02    0.00    0.00    0.00      0      0      0       0       0 21.30
 2013 147    22     6    2.0      1   0.01     12     12      0     13     25     25      0    0.0  0.000      0      0  0.000  0.000  0.008  0.000  0.000  0.000  0.000   4.40   0.00   0.00      0      0     79.8   0.01   0.00   0.21    0.25    0.13    0.03    0.00    0.00    0.00      0      0      0       0       0 20.21
 2013 148    23     7    3.0      1   0.02     12     12      0     14     25     25      0    0.0  0.000      0      0  0.000  0.000  0.000  0.000  0.000  0.000  0.000   4.40   0.00   0.00      0      0    124.7   0.01   0.00   0.23    0.26    0.14    0.03    0.00    0.00    0.00      0      0      0       0       0 19.88
 2013 149    24     8    4.0      1   0.04     12     12      0     15     25     25      0    0.0  0.000      0      0  0.000  0.000  0.000  0.000  0.000  0.000  0.000   4.40   0.00   0.00      0      0    283.1   0.02   0.00   0.25    0.27    0.14    0.04    0.00    0.00    0.00      0      0      0       0       0 20.14
 2013 150    25     9    4.0      1   0.06     19     12      0     17     31     31      0    0.0  0.000      0      0  0.000  0.000  0.000  0.000  0.000  0.000  0.000   3.48   0.00   0.00      0      0    315.2   0.03   0.00   0.27    0.28    0.16    0.05    0.00    0.00    0.00      0      0      0       0       0 20.77
 2013 151    26    10    5.0      1   0.09     31     12      0     18     43     43      0    0.0  0.000      0      0  0.000  0.000  0.000  0.000  0.000  0.000  0.000   2.99   0.00   0.00      0      0    285.2   0.05   0.00   0.29    0.29    0.16    0.05    0.00    0.00    0.00      0      0      0       0       0 20.26
 2013 152    27    11    5.0      1   0.12     47     12      0     21     59     59      0    0.0  0.000      0      0  0.000  0.000  0.000  0.000  0.000  0.000  0.000   2.99   0.00   0.00      0      0    262.2   0.07   0.00   0.30    0.32    0.19    0.08    0.00    0.00    0.00      0      0      0       0       0 20.81
 2013 153    28    12    6.0      1   0.16     67     12      0     28     79     79      0    0.0  0.000      0      0  0.000  0.000  0.000  0.000  0.000  0.000  0.000   3.00   0.00   0.00      0      0    244.0   0.09   0.00   0.31    0.38    0.24    0.12    0.00    0.00    0.00      0      0      0       0       0 20.96
 2013 154    29    13    6.0      1   0.21     90     12      0     39    102    102      0    0.0  0.000      0      0  0.000  0.000  0.000  0.000  0.000  0.000  0.000   3.04   0.00   0.00      0      0    229.6   0.11   0.00   0.32    0.47    0.33    0.18    0.01    0.00    0.00      0      0      0       0       0 19.97
 2013 155    30    14    7.0      2   0.25    105     12      0     54    117    117      0    0.0  0.000      0      0  0.000  0.000  0.000  0.258  0.000  0.000  0.000   3.36   0.00   0.00      0      0    237.4   0.13   0.00   0.34    0.57    0.43    0.28    0.02    0.00    0.00      0      0      0       0       1 19.94
 2013 156    31    15    7.0      2   0.31    138     12      0     68    150    150      0    0.0  0.000      0      0  0.000  0.000  0.005  0.131  0.000  0.000  0.000   3.03   0.00   0.00      0      0    224.2   0.17   0.00   0.36    0.67    0.52    0.37    0.03    0.00    0.00      0      0      0       0       1 21.19
 2013 157    32    16    8.0      2   0.35    161     12      0     89    174    174      0    0.0  0.000      0      0  0.000  0.000  0.000  0.451  0.000  0.000  0.000   3.32   0.00   0.00      0      0    216.8   0.19   0.00   0.39    0.82    0.67    0.51    0.05    0.00    0.00      0      0      0       0       1 20.12
 2013 158    33    17    8.0      2   0.42    204     12      0    102    217    217      0    0.0  0.000      0      0  0.000  0.000  0.000  0.182  0.000  0.000  0.000   3.05   0.00   0.00      0      0    206.5   0.23   0.00   0.41    0.91    0.75    0.59    0.06    0.00    0.00      0      0      0       0       2 20.80
 2013 159    34    18    9.0      2   0.47    237     12      0    108    249    249      0    0.0  0.000      0      0  0.000  0.000  0.000  0.325  0.000  0.000  0.000   3.78   0.00   0.00      0      0    200.2   0.26   0.00   0.44    0.94    0.79    0.62    0.07    0.00    0.00      0      0      0       0       2 20.61
 2013 160    35    19   10.0      2   0.56    293     12      0    120    305    305      0    0.0  0.000      0      0  0.000  0.000  0.000  0.237  0.000  0.000  0.000   3.74   0.00   0.00      0      0    191.5   0.30   0.00   0.46    1.02    0.86    0.69    0.09    0.00    0.00      0      0      0       0       3 21.84
 2013 161    36    20   10.0      2   0.63    340     12      0    128    352    352      0    0.0  0.000      0      0  0.000  0.000  0.000  0.160  0.000  0.000  0.000   3.69   0.00   0.00      0      0    185.5   0.34   0.00   0.49    1.07    0.91    0.74    0.10    0.00    0.00      0      0      0       0       3 19.97
 2013 162    37    21   11.0      3   0.75    426     13      0    133    439    439      0    0.0  0.000      0      0  0.000  0.000  0.000  0.075  0.000  0.000  0.000   3.61   0.00   0.00      0      0    176.8   0.41   0.00   0.51    1.10    0.94    0.76    0.11    0.00    0.00      0      0      0       0       4 21.32
 2013 163    38    22   11.0      3   0.89    525     15      0    152    540    540      0    0.0  0.000      0      0  0.000  0.000  0.000  0.000  0.000  0.000  0.000   3.54   0.00   0.00      0      0    170.3   0.48   0.00   0.54    1.22    1.05    0.86    0.15    0.00    0.00      0      0      0       0       5 19.90
 2013 164    39    23   12.0      3   1.08    658     21      0    159    679    679      0    0.0  0.000      0      0  0.000  0.000  0.000  0.000  0.000  0.000  0.000   3.47   0.00   0.00      0      0    163.4   0.58   0.00   0.56    1.26    1.09    0.90    0.16    0.00    0.00      0      0      0       0       5 20.30
 2013 165    40    24   12.0      3   1.20    756     28      0    164    784    784      0    0.0  0.000      0      0  0.000  0.000  0.000  0.000  0.000  0.000  0.000   3.41   0.00   0.00      0      0    159.2   0.65   0.00   0.59    1.29    1.11    0.92    0.17    0.01    0.00      0      0      0       0       6 20.80
 2013 166    41    25   13.0      3   1.38    898     45      0    174    943    943      0    0.0  0.000      0      0  0.000  0.000  0.000  0.000  0.000  0.000  0.000   3.35   0.00   0.00      0      0    154.2   0.75   0.00   0.61    1.36    1.17    0.97    0.18    0.01    0.00      0      0      0       0       7 19.90
 2013 167    42    26   13.0      3   1.57   1046     70      0    217   1116   1116      0    0.0  0.000      0      0  0.000  0.000  0.000  0.000  0.000  0.000  0.000   3.30   0.00   0.00      0      0    149.8   0.84   0.00   0.64    1.63    1.40    1.17    0.25    0.05    0.00      0      0      0       0       8 20.05
 2013 168    43    27   14.0      3   1.74   1187    103      0    226   1290   1290      0    0.0  0.000      0      0  0.000  0.000  0.000  0.000  0.000  0.000  0.000   3.24   0.00   0.00      0      0    146.2   0.94   0.00   0.66    1.68    1.44    1.21    0.27    0.05    0.00      0      0      0       0       9 20.95
 2013 169    44    28   14.0      3   1.84   1283    133      0    298   1416   1416      0    0.0  0.000      0      0  0.107  0.405  0.000  0.000  0.000  0.000  0.000   3.21   0.00   0.00      0      0    143.3   0.99   0.00   0.69    2.13    1.82    1.53    0.38    0.13    0.00      0      0      0       0      10 20.75
 2013 170    45    29   15.0      3   1.90   1358    161      0    353   1519   1519      0    0.0  0.000      0      0  0.233  0.489  0.000  0.000  0.000  0.000  0.000   3.19   0.00   0.00      0      0    140.2   1.03   0.00   0.71    2.47    2.09    1.77    0.47    0.19    0.00      0      0      0       0      12 18.60
 2013 171    46    30   15.0      3   2.00   1441    200      0    358   1641   1641      0    0.0  0.000      0      0  0.000  0.130  0.000  0.000  0.000  0.000  0.000   3.07   0.00   0.00      0      0    138.7   1.08   0.00   0.73    2.50    2.11    1.79    0.48    0.20    0.00      0      0      0       0      13 20.40
 2013 172    47    31   16.0      3   2.03   1504    236      0    379   1740   1740      0    0.0  0.000      0      0  0.421  0.614  0.000  0.000  0.000  0.000  0.000   3.15   0.00   0.00      0      0    134.7   1.09   0.00   0.76    2.62    2.21    1.88    0.51    0.23    0.00      0      0      0       0      15 20.10
 2013 173    48    32   16.0      3   2.01   1546    265      0    401   1811   1811      0    0.0  0.000      0      0  0.624  0.750  0.000  0.000  0.000  0.000  0.000   3.16   0.00   0.00      0      0    129.9   1.09   0.00   0.78    2.60    2.33    1.98    0.55    0.26    0.00      0      0      0       0      17 20.90
 2013 174    49    33   17.0      3   2.02   1598    307      0    404   1905   1905      0    0.0  0.000      0      0  0.454  0.636  0.000  0.000  0.000  0.000  0.000   3.01   0.00   0.00      0      0    126.4   1.09   0.00   0.81    2.62    2.35    1.99    0.55    0.27    0.00      0      0      0       0      17 21.10
 2013 175    50    34   17.0      3   2.11   1680    382      0    411   2063   2063      0    0.0  0.000      0      0  0.000  0.000  0.000  0.000  0.000  0.000  0.000   2.87   0.00   0.00      0      0    125.7   1.14   0.00   0.83    2.66    2.38    2.01    0.56    0.28    0.01      0      0      0       0      19 19.10
 2013 176    51    35   18.0      3   2.18   1747    453      0    417   2200   2200      0    0.0  0.000      0      0  0.000  0.000  0.000  0.000  0.000  0.000  0.000   2.82   0.00   0.00      0      0    125.1   1.18   0.00   0.85    2.69    2.41    2.03    0.57    0.28    0.01      0      0      0       0      21 19.00
 2013 177    52    36   18.0      3   2.34   1893    627      0    433   2520   2520      0    0.0  0.000      0      0  0.000  0.000  0.000  0.000  0.000  0.000  0.000   2.77   0.00   0.00      0      0    123.8   1.26   0.00   0.88    2.78    2.49    2.08    0.59    0.30    0.02      0      0      0       0      23 20.25
 2013 178    53    37   19.0      3   2.42   1984    714      0    440   2698   2700      0    0.0  0.000      2      0  0.203  0.469  0.000  0.000  0.000  0.000  0.000   2.77   0.00   0.00      0      2    121.8   1.30   0.00   0.90    2.81    2.52    2.12    0.60    0.31    0.03      0      0      0       0      25 21.63
 2013 179    54    38   19.0      3   2.50   2060    825      0    449   2885   2889      0    0.0  0.000      4      0  0.000  0.000  0.000  0.000  0.000  0.000  0.000   2.68   0.00   0.00      0      4    121.2   1.35   0.00   0.93    2.84    2.56    2.15    0.61    0.32    0.03      0      0      0       0      28 18.55
 2013 180    55    39   20.0      3   2.60   2157    997      0    462   3153   3166      0    0.0  0.000     12      0  0.000  0.000  0.000  0.152  0.000  0.000  0.000   2.64   0.00   0.00      0     12    120.5   1.40   0.00   0.95    2.90    2.62    2.21    0.62    0.34    0.05      0      0      0       0      30 18.60
 2013 181    56    40   20.0      3   2.69   2246   1179      0    475   3425   3449      0    0.0  0.000     24      0  0.000  0.000  0.000  0.028  0.000  0.000  0.000   2.60   0.00   0.01      0     24    119.9   1.45   0.00   0.97    2.96    2.67    2.26    0.64    0.35    0.06      0      0      0       0      32 19.60
 2013 182    57    41   21.0      3   2.76   2311   1329      0    486   3640   3676      0    0.0  0.000     36      0  0.000  0.000  0.000  0.190  0.000  0.000  0.000   2.55   0.00   0.01      0     36    119.4   1.49   0.00   1.00    2.98    2.72    2.31    0.65    0.36    0.07      0      0      0       0      34 21.25
 2013 183    58    42   21.0      3   2.85   2395   1524      0    501   3919   3989      0    0.0  0.000     70      0  0.000  0.000  0.000  0.138  0.000  0.000  0.000   2.52   0.00   0.02      0     70    118.9   1.53   0.00   1.00    3.03    2.78    2.37    0.68    0.38    0.09      0      0      0       0      37 20.20
 2013 184    59    43   22.0      3   2.94   2489   1736      0    523   4226   4359      0    0.0  0.000    133      0  0.000  0.000  0.000  0.069  0.000  0.000  0.000   2.49   0.00   0.03      0    133    118.2   1.59   0.00   1.00    3.10    2.87    2.47    0.70    0.40    0.12      0      0      0       0      39 20.55
 2013 185    60    44   22.0      3   3.02   2561   1908      0    537   4469   4654      0    0.0  0.000    185      0  0.000  0.000  0.000  0.012  0.000  0.000  0.000   2.44   0.00   0.04      0    185    117.8   1.60   0.00   1.00    3.13    2.93    2.53    0.72    0.42    0.14      0      0      0       0      42 20.55
 2013 186    61    45   22.0      3   3.10   2643   2069      0    553   4713   4993      0    0.0  0.000    281      0  0.000  0.000  0.000  0.000  0.000  0.000  0.000   2.42   0.00   0.06      0    281    117.3   1.60   0.00   1.00    3.18    2.99    2.60    0.75    0.43    0.16      0      0      0       0      45 19.25
 2013 187    62    46   22.0      3   3.19   2738   2210      0    573   4947   5379      0    0.0  0.000    431      0  0.000  0.000  0.000  0.000  0.000  0.000  0.000   2.40   0.00   0.08      0    431    116.7   1.60   0.00   1.00    3.23    3.07    2.68    0.77    0.46    0.18      0      0      0       0      47 20.20
 2013 188    63    47   22.0      3   3.25   2793   2319      0    583   5112   5607      0    0.0  0.000    495      0  0.000  0.000  0.000  0.000  0.000  0.000  0.000   2.32   0.00   0.09      0    495    116.4   1.60   0.00   1.00    3.26    3.11    2.72    0.79    0.47    0.20      0      0      0       0      47 20.75
 2013 189    64    48   22.0      3   3.32   2867   2415      0    596   5282   5905      0    0.0  0.000    623      0  0.000  0.000  0.000  0.000  0.000  0.000  0.000   2.30   0.00   0.11      0    623    115.9   1.60   0.00   1.00    3.29    3.16    2.77    0.81    0.48    0.22      0      0      0       0      50 20.70
 2013 190    65    49   22.0      4   3.32   2836   2554      0    610   5389   6257      0    0.0  0.000    868      0  0.000  0.000  0.000  0.000  0.000  0.000  0.000   2.32   0.00   0.14      0    868    117.2   1.60   0.00   1.00    3.31    3.21    2.83    0.83    0.50    0.24      0      0      0       0      53 20.65
 2013 191    66    50   22.0      4   3.32   2802   2661      0    622   5463   6580      0    0.0  0.000   1117      0  0.000  0.000  0.000  0.000  0.000  0.000  0.000   2.29   0.00   0.17      0   1117    118.6   1.60   0.00   1.00    3.33    3.26    2.88    0.84    0.51    0.25      0      0      0       0      53 19.20
 2013 192    67    51   22.0      4   3.32   2766   2722      0    630   5487   6786      0    0.0  0.000   1299      0  0.000  0.000  0.000  0.000  0.000  0.000  0.000   2.28   0.00   0.19      0   1299    120.2   1.60   0.00   1.00    3.33    3.29    2.91    0.85    0.52    0.27      0      0      0       0      53 19.30
 2013 193    68    52   22.0      4   3.32   2726   2808      0    644   5534   7148      0    0.0  0.000   1614      0  0.000  0.000  0.000  0.000  0.000  0.000  0.000   2.26   0.00   0.23      0   1614    121.8   1.60   0.00   1.00    3.35    3.35    2.97    0.87    0.54    0.29      0      0      0       0      53 19.15
 2013 194    69    53   22.0      4   3.30   2684   2874      0    656   5558   7464      0    0.0  0.000   1907      0  0.000  0.000  0.000  0.000  0.000  0.000  0.000   2.25   0.00   0.26      0   1907    123.0   1.60   0.00   1.00    3.38    3.40    3.02    0.89    0.56    0.31      0      0      0       0      53 20.10
 2013 195    70    54   22.0      4   3.28   2638   2938      0    670   5576   7806      0    0.0  0.000   2230      0  0.000  0.000  0.000  0.000  0.000  0.000  0.000   2.24   0.00   0.29      0   2230    124.5   1.60   0.00   1.00    3.40    3.45    3.07    0.91    0.57    0.32      0      0      0       0      53 19.75
 2013 196    71    55   22.0      4   3.27   2590   2995      0    678   5585   8011      0    0.0  0.000   2426      0  0.000  0.089  0.000  0.000  0.000  0.000  0.000   2.24   0.00   0.30      0   2426    126.1   1.60   0.00   1.00    3.41    3.48    3.11    0.92    0.58    0.34      0      0      0       0      53 20.50
 2013 197    72    56   22.0      4   3.23   2539   3136      0    685   5675   8215      0    0.0  0.000   2540      0  0.217  0.479  0.000  0.000  0.000  0.000  0.000   2.21   0.00   0.31      0   2540    127.3   1.60   0.00   1.00    3.46    3.51    3.13    0.93    0.59    0.35      0      0      0       0      53 20.75
 2013 198    73    57   22.0      4   3.23   2484   3172      0    694   5656   8428      0    0.0  0.000   2772      0  0.000  0.000  0.000  0.000  0.000  0.000  0.000   2.21   0.00   0.33      0   2772    130.0   1.60   0.00   1.00    3.51    3.54    3.16    0.94    0.60    0.36      0      0      0       0      53 19.40
 2013 199    74    58   22.0      5   3.18   2484   3172    161    717   5656   8589   2961    5.4  0.019   2933      6  0.000  0.000  0.000  0.000  0.000  0.000  0.000   2.16   5.49   0.34      0   2933    127.9   1.60   0.00   1.00    3.64    3.63    3.25    0.97    0.62    0.39      0      0      0       0      53 19.75
 2013 200    75    59   22.0      5   3.17   2484   3172    339    767   5656   8766   2961   11.4  0.039   3111      6  0.000  0.000  0.000  0.000  0.000  0.000  0.000   2.11  10.89   0.35      0   3111    127.6   1.60   0.00   1.00    3.92    3.84    3.43    1.03    0.67    0.44      0      0      0       0      53 18.90
 2013 201    76    60   22.0      5   3.16   2484   3172    481    814   5656   8909   2961   16.2  0.054   3253      6  0.000  0.000  0.000  0.000  0.000  0.000  0.000   2.06  14.78   0.37      0   3253    127.2   1.60   0.00   1.00    4.00    4.00    3.61    1.09    0.72    0.50      0      0      0       0      53 20.60
 2013 202    77    61   22.0      5   3.15   2484   3172    641    870   5656   9068   2961   21.6  0.071   3413      6  0.000  0.000  0.000  0.000  0.000  0.000  0.000   2.01  18.77   0.38      0   3413    126.8   1.60   0.00   1.00    4.00    4.00    3.82    1.16    0.77    0.56      0      0      0       0      53 19.80
 2013 203    78    62   22.0      5   3.14   2484   3172    798    900   5656   9226   2961   27.0  0.087   3570      6  0.000  0.000  0.000  0.000  0.000  0.000  0.000   1.96  22.36   0.39      0   3570    126.2   1.60   0.00   1.00    4.00    4.00    3.93    1.19    0.81    0.59      0      0      0       0      53 19.90
 2013 204    79    63   22.0      5   3.12   2484   3172    929    954   5656   9357   2961   31.4  0.099   3701      6  0.000  0.087  0.000  0.000  0.000  0.000  0.000   1.92  25.11   0.40      0   3701    125.5   1.60   0.00   1.00    4.00    4.00    4.00    1.26    0.86    0.66      0      0      0       0      53 21.10
 2013 205    80    64   22.0      5   3.05   2484   3172   1026    981   5656   9453   2961   34.6  0.108   3797      6  0.448  0.633  0.000  0.000  0.000  0.000  0.000   1.89  27.01   0.40      0   3797    122.7   1.60   0.00   1.00    4.00    4.00    4.00    1.29    0.89    0.69      0      0      0       0      53 21.25
 2013 206    81    65   22.0      5   2.97   2484   3172   1122    995   5656   9550   2961   37.9  0.117   3894      6  0.492  0.662  0.000  0.000  0.000  0.000  0.000   1.86  28.81   0.41      0   3894    119.7   1.60   0.00   1.00    4.00    4.00    4.00    1.31    0.90    0.70      0      0      0       0      53 21.05
 2013 207    82    66   22.0      5   2.97   2484   3172   1272   1026   5656   9700   2961   43.0  0.131   4044      6  0.000  0.000  0.000  0.000  0.000  0.000  0.000   1.81  31.45   0.42      0   4044    119.7   1.60   0.00   1.00    4.00    4.00    4.00    1.34    0.93    0.73      0      0      0       0      53 20.25
 2013 208    83    67   22.0      5   2.97   2484   3172   1450   1033   5656   9877   2961   49.0  0.147   4221      6  0.000  0.000  0.000  0.095  0.000  0.000  0.000   1.76  34.34   0.43      0   4221    119.7   1.60   0.00   1.00    4.00    4.00    4.00    1.35    0.93    0.74      0      0      0       0      53 18.65
 2013 209    84    68   22.0      5   2.97   2484   3172   1577   1091   5656  10005   2961   53.3  0.158   4349      6  0.000  0.000  0.000  0.155  0.000  0.000  0.000   1.72  36.26   0.43      0   4349    119.7   1.60   0.00   1.00    4.00    4.00    4.00    1.41    0.99    0.80      0      0      0       0      53 21.25
 2013 210    85    69   22.0      5   2.96   2484   3172   1743   1126   5656  10170   2961   58.9  0.171   4515      6  0.000  0.000  0.000  0.191  0.000  0.000  0.000   1.67  38.60   0.44      0   4515    119.3   1.60   0.00   1.00    4.00    4.00    4.00    1.45    1.02    0.83      0      0      0       0      53 19.55
 2013 211    86    70   22.0      5   2.93   2484   3172   1919   1149   5656  10347   2961   64.8  0.185   4691      6  0.000  0.000  0.000  0.144  0.000  0.000  0.000   1.61  40.91   0.45      0   4691    117.9   1.60   0.00   1.00    4.00    4.00    4.00    1.48    1.04    0.86      0      0      0       0      53 19.05
 2013 212    87    71   22.0      5   2.89   2484   3172   2071   1179   5656  10499   2961   70.0  0.197   4843      6  0.000  0.000  0.000  0.082  0.000  0.000  0.000   1.45  42.77   0.46      0   4843    116.3   1.60   0.00   1.00    4.00    4.00    4.00    1.51    1.07    0.89      0      0      0       0      59 20.15
 2013 213    88    72   22.0      5   2.84   2484   3172   2203   1197   5656  10631   2961   74.4  0.207   4975      6  0.000  0.000  0.000  0.119  0.000  0.000  0.000   1.41  44.29   0.47      0   4975    114.4   1.60   0.00   1.00    4.00    4.00    4.00    1.53    1.09    0.91      0      0      0       0      65 21.05
 2013 214    89    73   22.0      5   2.80   2484   3172   2363   1226   5656  10791   2961   79.8  0.219   5135      6  0.000  0.000  0.000  0.046  0.000  0.000  0.000   1.40  46.02   0.48      0   5135    112.5   1.60   0.00   1.00    4.00    4.00    4.00    1.56    1.11    0.94      0      0      0       0      71 19.80
 2013 215    90    74   22.0      5   2.74   2484   3172   2499   1289   5656  10927   2961   84.4  0.229   5271      6  0.000  0.000  0.000  0.047  0.000  0.000  0.000   1.38  47.41   0.48      0   5271    110.3   1.60   0.00   1.00    4.00    4.00    4.00    1.63    1.17    1.00      0      0      0       0      77 20.90
 2013 216    91    75   22.0      5   2.69   2484   3172   2666   1314   5656  11094   2961   90.1  0.240   5438      6  0.000  0.000  0.000  0.004  0.000  0.000  0.000   1.34  49.03   0.49      0   5438    108.1   1.60   0.00   1.00    4.00    4.00    4.00    1.66    1.20    1.03      0      0      0       0      84 19.45
 2013 217    92    76   22.0      5   2.63   2484   3172   2843   1322   5656  11271   2961   96.0  0.252   5615      6  0.000  0.000  0.000  0.000  0.000  0.000  0.000   1.31  50.63   0.50      0   5615    105.8   1.60   0.00   1.00    4.00    4.00    4.00    1.67    1.20    1.04      0      0      0       0      90 19.05
 2013 218    93    77   22.0      5   2.56   2484   3172   2985   1348   5656  11413   2961  100.8  0.262   5757      6  0.000  0.000  0.000  0.000  0.000  0.000  0.000   1.28  51.85   0.50      0   5757    103.1   1.60   0.00   1.00    4.00    4.00    4.00    1.70    1.23    1.07      0      0      0       0      97 20.60
 2013 219    94    78   22.0      5   2.49   2484   3172   3106   1387   5656  11534   2961  104.9  0.269   5878      6  0.000  0.090  0.000  0.000  0.000  0.000  0.000   1.25  52.84   0.51      0   5878    100.1   1.60   0.00   1.00    4.00    4.00    4.00    1.75    1.26    1.11      0      0      0       0     103 21.55
 2013 220    95    79   22.0      5   2.41   2484   3172   3262   1398   5656  11689   2961  110.2  0.279   6033      6  0.000  0.000  0.000  0.000  0.000  0.000  0.000   1.22  54.06   0.52      0   6033     97.1   1.60   0.00   1.00    4.00    4.00    4.00    1.76    1.27    1.12      0      0      0       0     110 20.00
 2013 221    96    80   22.0      5   2.33   2484   3172   3387   1424   5656  11815   2961  114.4  0.287   6159      6  0.000  0.000  0.000  0.015  0.000  0.000  0.000   1.20  54.99   0.52      0   6159     93.6   1.60   0.00   1.00    4.00    4.00    4.00    1.79    1.30    1.15      0      0      0       0     117 21.18
 2013 222    97    81   22.0      5   2.24   2484   3172   3545   1437   5656  11973   2961  119.7  0.296   6317      6  0.000  0.000  0.000  0.143  0.000  0.000  0.000   1.17  56.12   0.53      0   6317     90.2   1.60   0.00   1.00    4.00    4.00    4.00    1.81    1.31    1.16      0      0      0       0     125 19.90
 2013 223    98    82   22.0      5   2.15   2484   3172   3712   1434   5656  12140   2961  125.4  0.306   6484      6  0.000  0.000  0.000  0.109  0.000  0.000  0.000   1.14  57.25   0.53      0   6484     86.6   1.60   0.00   1.00    3.99    3.99    4.00    1.81    1.31    1.16      0      0      0       0     132 19.45
 2013 224    99    83   22.0      5   2.06   2484   3172   3877   1442   5656  12305   2961  130.9  0.315   6649      6  0.000  0.000  0.000  0.064  0.000  0.000  0.000   1.13  58.31   0.54      0   6649     82.8   1.60   0.00   1.00    4.00    4.00    4.00    1.82    1.32    1.17      0      0      0       0     139 19.60
 2013 225   100    84   22.0      5   1.95   2484   3172   4029   1460   5656  12457   2961  136.1  0.323   6801      6  0.000  0.000  0.000  0.010  0.000  0.000  0.000   1.10  59.24   0.55      0   6801     78.7   1.60   0.00   1.00    4.00    4.00    4.00    1.85    1.33    1.19      0      0      0       0     146 20.15
 2013 226   101    85   22.0      5   1.84   2484   3172   4169   1495   5656  12597   2961  140.8  0.331   6941      6  0.000  0.000  0.000  0.000  0.000  0.000  0.000   1.08  60.06   0.55      0   6941     74.2   1.60   0.00   1.00    4.00    4.00    4.00    1.89    1.37    1.23      0      0      0       0     153 20.70
 2013 227   102    86   22.0      5   1.72   2484   3172   4312   1522   5656  12740   2961  145.6  0.338   7084      6  0.000  0.000  0.000  0.000  0.000  0.000  0.000   1.06  60.87   0.56      0   7084     69.4   1.60   0.00   1.00    4.00    4.00    4.00    1.93    1.39    1.25      0      0      0       0     161 20.55
 2013 228   103    87   22.0      5   1.61   2484   3149   4475   1515   5633  12880   2961  151.1  0.347   7247      6  0.000  0.000  0.000  0.000  0.000  0.000  0.000   1.03  61.75   0.56      0   7247     64.6   1.60   0.00   1.00    4.00    4.00    4.00    1.93    1.39    1.25      0      0      0       0     168 19.65
 2013 229   104    88   22.0      5   1.48   2484   3172   4629   1529   5656  13057   2961  156.4  0.355   7401      6  0.000  0.000  0.000  0.000  0.000  0.000  0.000   1.01  62.55   0.57      0   7401     59.5   1.60   0.00   1.00    4.00    4.00    4.00    1.95    1.41    1.27      0      0      0       0     176 20.05
 2013 230   105    89   22.0      5   1.48   2484   3172   4629   1529   5656  13057   2961  156.4  0.355   7401      6  0.000  0.000  0.000  0.000  0.000  0.000  0.000   1.01  62.55   0.57      0   7401     59.5   1.60   0.00   1.00    4.00    4.00    4.00    1.97    1.42    1.28      0      0      0       0     176 20.25
 2013 231   106    90   22.0      5   1.48   2484   3172   4629   1529   5656  13057   2961  156.4  0.355   7401      6  0.000  0.000  0.000  0.000  0.000  0.000  0.000   1.01  62.55   0.57      0   7401     59.5   1.60   0.00   1.00    4.00    4.00    4.00    2.00    1.43    1.29      0      0      0       0     176 18.75
 2013 232   107    91   22.0      5   1.48   2484   3172   4629   1529   5656  13057   2961  156.4  0.355   7401      6  0.000  0.000  0.000  0.015  0.000  0.000  0.000   1.01  62.55   0.57      0   7401     59.5   1.60   0.00   1.00    4.00    4.00    4.00    2.02    1.45    1.30      0      0      0       0     176 19.10
 2013 233   108    92   22.0      5   1.48   2484   3172   4629   1529   5656  13057   2961  156.4  0.355   7401      6  0.000  0.000  0.000  0.015  0.000  0.000  0.000   1.01  62.55   0.57      0   7401     59.5   1.60   0.00   1.00    4.00    4.00    4.00    2.04    1.46    1.32      0      0      0       0     176  0.00

*DSSAT Cropping System Model Ver. 4.6.1.000 -release      MAY 05, 2017; 11:09:10
                                                                                
*RUN   3        : P3                        MZCER046 0\000000    3              
 MODEL          : MZCER046 - Maize                                              
 EXPERIMENT     : 0\000000 BN Calibracion Cerete 2013                           
 DATA PATH      : C:\L\0\00000                                                  
 TREATMENT  3   : P3                        MZCER046                            
  
!                                                                                                                                                                                                                                      Root Dens. (cm/cm3) by soil depth (cm):
!                                                                                                                                                                                                                                      0-5    5-15   15-26   26-51   51-75  75-100
@YEAR DOY   DAS   DAP   L#SD   GSTD   LAID   LWAD   SWAD   GWAD   RWAD   VWAD   CWAD   G#AD   GWGD   HIAD   PWAD   P#AD   WSPD   WSGD   NSTD   EWSD  PST1A  PST2A   KSTD   LN%D   SH%D   HIPD   PWDD   PWTD     SLAD   CHTD   CWID   RDPD    RL1D    RL2D    RL3D    RL4D    RL5D    RL6D   CDAD   LDAD   SDAD   SNW0C   SNW1C  DTTD
 2013 157    16     0    0.0      0   0.00      0      0      0      0      0      0      0    0.0  0.000      0      0  0.000  0.000  0.000  0.000  0.000  0.000  0.000   0.00   0.00   0.00      0      0      0.0   0.00   0.00   0.05    0.00    0.00    0.00    0.00    0.00    0.00      0      0      0       0       0 20.12
 2013 158    17     1    0.0      0   0.00      0      0      0      0      0      0      0    0.0  0.000      0      0  0.000  0.000  0.000  0.000  0.000  0.000  0.000   0.00   0.00   0.00      0      0      0.0   0.00   0.00   0.08    0.00    0.00    0.00    0.00    0.00    0.00      0      0      0       0       0 20.80
 2013 159    18     2    0.0      0   0.00      0      0      0      0      0      0      0    0.0  0.000      0      0  0.000  0.000  0.000  0.000  0.000  0.000  0.000   0.00   0.00   0.00      0      0      0.0   0.00   0.00   0.11    0.00    0.00    0.00    0.00    0.00    0.00      0      0      0       0       0 20.61
 2013 160    19     3    0.0      0   0.00      0      0      0      0      0      0      0    0.0  0.000      0      0  0.000  0.000  0.000  0.000  0.000  0.000  0.000   0.00   0.00   0.00      0      0      0.0   0.00   0.00   0.14    0.00    0.00    0.00    0.00    0.00    0.00      0      0      0       0       0 21.84
 2013 161    20     4    0.0      0   0.00      0      0      0      0      0      0      0    0.0  0.000      0      0  0.000  0.000  0.000  0.000  0.000  0.000  0.000   0.00   0.00   0.00      0      0      0.0   0.00   0.00   0.17    0.00    0.00    0.00    0.00    0.00    0.00      0      0      0       0       0 19.97
 2013 162    21     5    2.0      1   0.00     12     12      0     12     25     25      0    0.0  0.000      0      0  0.000  0.000  0.012  0.000  0.000  0.000  0.000   4.40   0.00   0.00      0      0     39.9   0.00   0.00   0.20    0.25    0.12    0.03    0.00    0.00    0.00      0      0      0       0       0 21.32
 2013 163    22     6    2.0      1   0.01     12     12      0     13     25     25      0    0.0  0.000      0      0  0.000  0.000  0.007  0.000  0.000  0.000  0.000   4.40   0.00   0.00      0      0     80.8   0.01   0.00   0.22    0.25    0.13    0.03    0.00    0.00    0.00      0      0      0       0       0 20.58
 2013 164    23     7    3.0      1   0.02     12     12      0     14     25     25      0    0.0  0.000      0      0  0.000  0.000  0.000  0.000  0.000  0.000  0.000   4.40   0.00   0.00      0      0    128.2   0.01   0.00   0.24    0.26    0.14    0.03    0.00    0.00    0.00      0      0      0       0       0 20.78
 2013 165    24     8    4.0      1   0.04     12     12      0     15     25     25      0    0.0  0.000      0      0  0.000  0.000  0.000  0.000  0.000  0.000  0.000   4.40   0.00   0.00      0      0    298.1   0.02   0.00   0.26    0.27    0.14    0.04    0.00    0.00    0.00      0      0      0       0       0 21.02
 2013 166    25     9    4.0      1   0.06     20     12      0     16     32     32      0    0.0  0.000      0      0  0.000  0.000  0.000  0.000  0.000  0.000  0.000   3.40   0.00   0.00      0      0    312.9   0.03   0.00   0.28    0.28    0.15    0.05    0.00    0.00    0.00      0      0      0       0       0 20.40
 2013 167    26    10    5.0      1   0.09     32     12      0     18     45     45      0    0.0  0.000      0      0  0.000  0.000  0.000  0.000  0.000  0.000  0.000   2.96   0.00   0.00      0      0    282.8   0.05   0.00   0.29    0.29    0.16    0.06    0.00    0.00    0.00      0      0      0       0       0 20.70
 2013 168    27    11    5.0      1   0.13     49     12      0     20     61     61      0    0.0  0.000      0      0  0.000  0.000  0.000  0.000  0.000  0.000  0.000   2.96   0.00   0.00      0      0    259.8   0.07   0.00   0.30    0.31    0.18    0.07    0.00    0.00    0.00      0      0      0       0       0 21.28
 2013 169    28    12    6.0      1   0.16     63     12      0     30     76     76      0    0.0  0.000      0      0  0.000  0.298  0.000  0.000  0.000  0.000  0.000   3.23   0.00   0.00      0      0    246.4   0.08   0.00   0.32    0.40    0.25    0.13    0.00    0.00    0.00      0      0      0       0       0 21.35
 2013 170    29    13    6.0      1   0.19     83     12      0     39     95     95      0    0.0  0.000      0      0  0.000  0.136  0.000  0.000  0.000  0.000  0.000   3.12   0.00   0.00      0      0    233.3   0.10   0.00   0.33    0.48    0.32    0.19    0.01    0.00    0.00      0      0      0       0       0 19.24
 2013 171    30    14    7.0      2   0.24     98     12      0     42    111    111      0    0.0  0.000      0      0  0.000  0.000  0.000  0.000  0.000  0.000  0.000   3.30   0.00   0.00      0      0    240.3   0.13   0.00   0.34    0.50    0.33    0.20    0.01    0.00    0.00      0      0      0       0       1 20.61
 2013 172    31    15    7.0      2   0.27    118     12      0     50    131    131      0    0.0  0.000      0      0  0.192  0.462  0.007  0.000  0.000  0.000  0.000   3.30   0.00   0.00      0      0    230.1   0.15   0.00   0.37    0.57    0.39    0.25    0.02    0.00    0.00      0      0      0       0       1 20.52
 2013 173    32    16    8.0      2   0.30    135     12      0     60    147    147      0    0.0  0.000      0      0  0.453  0.636  0.000  0.000  0.000  0.000  0.000   3.41   0.00   0.00      0      0    219.8   0.16   0.00   0.39    0.57    0.47    0.32    0.03    0.00    0.00      0      0      0       0       1 21.60
 2013 174    33    17    9.0      2   0.35    163     12      0     65    176    176      0    0.0  0.000      0      0  0.113  0.409  0.000  0.000  0.000  0.000  0.000   3.18   0.00   0.00      0      0    211.8   0.19   0.00   0.42    0.61    0.50    0.35    0.03    0.00    0.00      0      0      0       0       1 21.33
 2013 175    34    18    9.0      2   0.40    197     12      0     70    209    209      0    0.0  0.000      0      0  0.000  0.000  0.000  0.000  0.000  0.000  0.000   3.78   0.00   0.00      0      0    205.4   0.22   0.00   0.44    0.65    0.54    0.38    0.04    0.00    0.00      0      0      0       0       2 19.46
 2013 176    35    19   10.0      2   0.46    229     12      0     76    242    242      0    0.0  0.000      0      0  0.000  0.000  0.000  0.035  0.000  0.000  0.000   3.74   0.00   0.00      0      0    200.2   0.25   0.00   0.47    0.69    0.58    0.40    0.05    0.00    0.00      0      0      0       0       2 19.24
 2013 177    36    20   10.0      2   0.58    304     12      0     96    316    316      0    0.0  0.000      0      0  0.000  0.054  0.000  0.000  0.000  0.000  0.000   3.69   0.00   0.00      0      0    189.7   0.31   0.00   0.49    0.83    0.71    0.50    0.08    0.00    0.00      0      0      0       0       2 20.97
 2013 178    37    21   11.0      3   0.69    384     13      0    104    397    397      0    0.0  0.000      0      0  0.000  0.158  0.000  0.000  0.000  0.000  0.000   3.61   0.00   0.00      0      0    180.5   0.37   0.00   0.52    0.88    0.76    0.55    0.09    0.00    0.00      0      0      0       0       3 22.19
 2013 179    38    22   11.0      3   0.82    468     14      0    108    482    482      0    0.0  0.000      0      0  0.000  0.000  0.000  0.000  0.000  0.000  0.000   3.54   0.00   0.00      0      0    174.2   0.44   0.00   0.54    0.91    0.78    0.57    0.10    0.00    0.00      0      0      0       0       3 18.55
 2013 180    39    23   12.0      3   0.95    567     18      0    134    586    586      0    0.0  0.000      0      0  0.000  0.000  0.000  0.175  0.000  0.000  0.000   3.48   0.00   0.00      0      0    168.2   0.51   0.00   0.56    1.06    0.93    0.71    0.14    0.01    0.00      0      0      0       0       4 18.60
 2013 181    40    24   12.0      3   1.12    690     27      0    155    718    718      0    0.0  0.000      0      0  0.000  0.000  0.000  0.064  0.000  0.000  0.000   3.43   0.00   0.00      0      0    162.2   0.60   0.00   0.59    1.18    1.04    0.82    0.18    0.02    0.00      0      0      0       0       5 19.60
 2013 182    41    25   13.0      3   1.27    806     40      0    167    847    847      0    0.0  0.000      0      0  0.000  0.000  0.000  0.221  0.000  0.000  0.000   3.36   0.00   0.00      0      0    157.5   0.68   0.00   0.61    1.25    1.11    0.88    0.20    0.02    0.00      0      0      0       0       5 21.25
 2013 183    42    26   13.0      3   1.42    928     61      0    211    989    989      0    0.0  0.000      0      0  0.000  0.000  0.000  0.162  0.000  0.000  0.000   3.31   0.00   0.00      0      0    153.4   0.77   0.00   0.64    1.51    1.34    1.10    0.27    0.05    0.00      0      0      0       0       6 20.20
 2013 184    43    27   14.0      3   1.59   1067     92      0    273   1160   1160      0    0.0  0.000      0      0  0.000  0.000  0.000  0.086  0.000  0.000  0.000   3.25   0.00   0.00      0      0    149.4   0.86   0.00   0.66    1.86    1.67    1.41    0.37    0.10    0.00      0      0      0       0       7 20.55
 2013 185    44    28   14.0      3   1.78   1220    137      0    295   1358   1358      0    0.0  0.000      0      0  0.000  0.000  0.000  0.026  0.000  0.000  0.000   3.19   0.00   0.00      0      0    145.6   0.96   0.00   0.69    1.99    1.79    1.51    0.40    0.13    0.00      0      0      0       0       9 20.55
 2013 186    45    29   15.0      3   1.95   1371    194      0    339   1564   1564      0    0.0  0.000      0      0  0.000  0.000  0.000  0.000  0.000  0.000  0.000   3.14   0.00   0.00      0      0    142.4   1.05   0.00   0.71    2.23    2.02    1.72    0.47    0.17    0.00      0      0      0       0      10 19.25
 2013 187    46    30   15.0      3   2.14   1533    268      0    396   1801   1801      0    0.0  0.000      0      0  0.000  0.000  0.000  0.000  0.000  0.000  0.000   3.09   0.00   0.00      0      0    139.4   1.15   0.00   0.73    2.55    2.31    1.97    0.55    0.25    0.00      0      0      0       0      12 20.20
 2013 188    47    31   16.0      3   2.28   1657    338      0    405   1995   1995      0    0.0  0.000      0      0  0.000  0.000  0.000  0.000  0.000  0.000  0.000   3.03   0.00   0.00      0      0    137.3   1.23   0.00   0.76    2.60    2.36    2.01    0.57    0.26    0.00      0      0      0       0      14 20.75
 2013 189    48    32   16.0      3   2.45   1813    442      0    417   2255   2255      0    0.0  0.000      0      0  0.000  0.000  0.000  0.000  0.000  0.000  0.000   2.98   0.00   0.00      0      0    134.9   1.32   0.00   0.78    2.67    2.42    2.06    0.58    0.28    0.00      0      0      0       0      16 20.70
 2013 190    49    33   17.0      3   2.63   1988    580      0    445   2568   2568      0    0.0  0.000      0      0  0.000  0.000  0.000  0.000  0.000  0.000  0.000   2.93   0.00   0.00      0      0    132.5   1.42   0.00   0.81    2.81    2.56    2.17    0.62    0.31    0.01      0      0      0       0      18 20.65
 2013 191    50    34   17.0      3   2.81   2154    731      0    463   2884   2884      0    0.0  0.000      0      0  0.000  0.000  0.000  0.000  0.000  0.000  0.000   2.88   0.00   0.00      0      0    130.5   1.51   0.00   0.83    2.91    2.65    2.24    0.65    0.33    0.02      0      0      0       0      20 19.20
 2013 192    51    35   18.0      3   2.92   2263    845      0    473   3108   3108      0    0.0  0.000      0      0  0.000  0.000  0.000  0.003  0.000  0.000  0.000   2.83   0.00   0.00      0      0    129.2   1.58   0.00   0.86    2.96    2.70    2.28    0.66    0.34    0.02      0      0      0       0      22 19.30
 2013 193    52    36   18.0      3   3.10   2433   1044      0    496   3476   3476      0    0.0  0.000      0      0  0.000  0.000  0.000  0.000  0.000  0.000  0.000   2.78   0.00   0.00      0      0    127.4   1.60   0.00   0.88    3.08    2.81    2.37    0.69    0.37    0.04      0      0      0       0      25 19.15
 2013 194    53    37   19.0      3   3.34   2670   1147      0    512   3817   3819      0    0.0  0.000      2      0  0.000  0.000  0.000  0.000  0.000  0.000  0.000   2.74   0.00   0.00      0      2    125.1   1.60   0.00   0.90    3.16    2.89    2.42    0.71    0.39    0.05      0      0      0       0      27 20.10
 2013 195    54    38   19.0      3   3.51   2844   1347      0    531   4190   4199      0    0.0  0.000      8      0  0.000  0.000  0.000  0.000  0.000  0.000  0.000   2.70   0.00   0.00      0      8    123.6   1.60   0.00   0.93    3.26    2.98    2.48    0.73    0.41    0.07      0      0      0       0      30 19.75
 2013 196    55    39   20.0      3   3.61   2940   1498      0    542   4437   4451      0    0.0  0.000     13      0  0.000  0.047  0.000  0.000  0.000  0.000  0.000   2.65   0.00   0.00      0     13    122.8   1.60   0.00   0.95    3.32    3.03    2.52    0.75    0.43    0.09      0      0      0       0      33 20.50
 2013 197    56    40   20.0      3   3.66   3023   1647      0    565   4669   4696      0    0.0  0.000     27      0  0.183  0.456  0.000  0.000  0.000  0.000  0.000   2.64   0.00   0.01      0     27    121.0   1.60   0.00   0.98    3.43    3.14    2.58    0.77    0.46    0.11      0      0      0       0      35 20.75
 2013 198    57    41   21.0      3   3.74   3106   1820      0    578   4926   4966      0    0.0  0.000     40      0  0.000  0.000  0.000  0.000  0.000  0.000  0.000   2.56   0.00   0.01      0     40    120.4   1.60   0.00   1.00    3.49    3.20    2.61    0.79    0.47    0.13      0      0      0       0      38 19.40
 2013 199    58    42   21.0      3   3.81   3179   1983      0    589   5162   5219      0    0.0  0.000     57      0  0.000  0.000  0.000  0.000  0.000  0.000  0.000   2.52   0.00   0.01      0     57    119.9   1.60   0.00   1.00    3.53    3.26    2.64    0.80    0.48    0.15      0      0      0       0      41 19.75
 2013 200    59    43   22.0      3   3.91   3280   2198      0    606   5478   5588      0    0.0  0.000    110      0  0.000  0.000  0.000  0.000  0.000  0.000  0.000   2.50   0.00   0.02      0    110    119.1   1.60   0.00   1.00    3.60    3.34    2.68    0.83    0.50    0.17      0      0      0       0      44 18.90
 2013 201    60    44   22.0      3   3.99   3365   2388      0    622   5753   5919      0    0.0  0.000    165      0  0.000  0.000  0.000  0.000  0.000  0.000  0.000   2.45   0.00   0.03      0    165    118.6   1.60   0.00   1.00    3.66    3.41    2.72    0.85    0.52    0.20      0      0      0       0      47 20.60
 2013 202    61    45   23.0      3   4.08   3459   2570      0    640   6029   6298      0    0.0  0.000    269      0  0.000  0.000  0.000  0.000  0.000  0.000  0.000   2.43   0.00   0.04      0    269    118.0   1.60   0.00   1.00    3.73    3.50    2.76    0.87    0.55    0.23      0      0      0       0      50 19.80
[...]
 2014 189    47    31   16.0      3   1.82   1323    228      0    348   1551   1551      0    0.0  0.000      0      0  0.632  0.755  0.000  0.000  0.000  0.000  0.000   3.23   0.00   0.00      0      0    137.8   0.99   0.00   0.75    2.21    1.92    1.79    0.50    0.20    0.00      0      0      0       0      12 20.65
 2014 190    48    32   16.0      3   2.00   1476    331      0    395   1807   1807      0    0.0  0.000      0      0  0.000  0.000  0.000  0.000  0.000  0.000  0.000   2.97   0.00   0.00      0      0    135.4   1.08   0.00   0.77    2.45    2.16    2.01    0.57    0.26    0.00      0      0      0       0      14 19.25
 2014 191    49    33   16.0      3   2.12   1584    414      0    476   1999   1999      0    0.0  0.000      0      0  0.000  0.000  0.000  0.305  0.000  0.000  0.000   2.92   0.00   0.00      0      0    133.8   1.14   0.00   0.79    2.85    2.56    2.41    0.69    0.36    0.02      0      0      0       0      16 19.10
 2014 192    50    34   17.0      3   2.20   1652    476      0    481   2128   2128      0    0.0  0.000      0      0  0.000  0.000  0.000  0.196  0.000  0.000  0.000   2.87   0.00   0.00      0      0    132.9   1.18   0.00   0.82    2.87    2.58    2.43    0.69    0.37    0.02      0      0      0       0      18 20.20
 2014 193    51    35   17.0      3   2.33   1777    606      0    493   2382   2382      0    0.0  0.000      0      0  0.000  0.000  0.000  0.026  0.000  0.000  0.000   2.82   0.00   0.00      0      0    131.3   1.26   0.00   0.84    2.92    2.64    2.48    0.71    0.38    0.02      0      0      0       0      20 20.60
 2014 194    52    36   18.0      3   2.49   1922    777      0    508   2700   2700      0    0.0  0.000      0      0  0.000  0.000  0.000  0.000  0.000  0.000  0.000   2.77   0.00   0.00      0      0    129.5   1.34   0.00   0.86    2.99    2.71    2.55    0.73    0.40    0.03      0      0      0       0      23 19.20
 2014 195    53    37   18.0      3   2.66   2078    914      0    522   2992   2994      0    0.0  0.000      3      0  0.000  0.000  0.000  0.000  0.000  0.000  0.000   2.73   0.00   0.00      0      3    127.8   1.43   0.00   0.88    3.06    2.77    2.61    0.75    0.41    0.04      0      0      0       0      25 19.20
 2014 196    54    38   19.0      3   2.78   2199   1084      0    536   3283   3291      0    0.0  0.000      8      0  0.000  0.000  0.000  0.000  0.000  0.000  0.000   2.68   0.00   0.00      0      8    126.6   1.50   0.00   0.90    3.12    2.83    2.67    0.76    0.43    0.05      0      0      0       0      28 19.25
 2014 197    55    39   19.0      3   2.91   2316   1292      0    552   3608   3626      0    0.0  0.000     17      0  0.000  0.000  0.000  0.000  0.000  0.000  0.000   2.64   0.00   0.00      0     17    125.5   1.57   0.00   0.93    3.19    2.90    2.74    0.78    0.45    0.07      0      0      0       0      31 20.80
 2014 198    56    40   20.0      3   3.01   2420   1502      0    567   3922   3955      0    0.0  0.000     33      0  0.000  0.000  0.000  0.000  0.000  0.000  0.000   2.60   0.00   0.01      0     33    124.5   1.60   0.00   0.95    3.26    2.97    2.80    0.80    0.46    0.08      0      0      0       0      34 19.80
 2014 199    57    41   20.0      3   3.06   2468   1613      0    573   4081   4119      0    0.0  0.000     38      0  0.000  0.000  0.000  0.000  0.000  0.000  0.000   2.55   0.00   0.01      0     38    124.1   1.60   0.00   0.97    3.29    2.99    2.82    0.81    0.47    0.09      0      0      0       0      36 20.30
 2014 200    58    42   21.0      3   3.07   2519   1720      0    622   4240   4310      0    0.0  0.000     70      0  0.283  0.522  0.000  0.000  0.000  0.000  0.000   2.56   0.00   0.02      0     70    121.9   1.60   0.00   0.99    3.51    3.19    3.02    0.88    0.52    0.15      0      0      0       0      39 20.20
 2014 201    59    43   21.0      3   3.03   2554   1790      0    653   4344   4445      0    0.0  0.000    101      0  0.485  0.657  0.000  0.000  0.000  0.000  0.000   2.54   0.00   0.02      0    101    118.6   1.60   0.00   1.00    3.64    3.33    3.13    0.91    0.55    0.19      0      0      0       0      42 20.40
 2014 202    60    44   22.0      3   3.12   2642   1985      0    670   4627   4808      0    0.0  0.000    181      0  0.000  0.000  0.000  0.000  0.000  0.000  0.000   2.45   0.00   0.04      0    181    118.1   1.60   0.00   1.00    3.70    3.39    3.19    0.94    0.57    0.21      0      0      0       0      46 20.35
 2014 203    61    45   22.0      3   3.19   2715   2139      0    683   4855   5109      0    0.0  0.000    254      0  0.000  0.000  0.000  0.000  0.000  0.000  0.000   2.41   0.00   0.05      0    254    117.6   1.60   0.00   1.00    3.76    3.45    3.24    0.95    0.59    0.23      0      0      0       0      49 19.90
 2014 204    62    46   22.0      3   3.13   2744   2155      0    724   4899   5227      0    0.0  0.000    328      0  0.540  0.694  0.000  0.000  0.000  0.000  0.000   2.43   0.00   0.06      0    328    114.2   1.60   0.00   1.00    3.93    3.62    3.39    1.00    0.63    0.28      0      0      0       0      52 20.25
 2014 205    63    47   22.0      3   3.06   2767   2158      0    752   4925   5321      0    0.0  0.000    397      0  0.626  0.751  0.000  0.000  0.000  0.000  0.000   2.42   0.00   0.07      0    397    110.6   1.60   0.00   1.00    4.00    3.74    3.49    1.04    0.66    0.32      0      0      0       0      52 19.90
 2014 206    64    48   22.0      3   2.97   2785   2187      0    776   4972   5398      0    0.0  0.000    426      0  0.694  0.797  0.000  0.000  0.000  0.000  0.000   2.39   0.00   0.08      0    426    106.6   1.60   0.00   1.00    4.00    3.84    3.59    1.08    0.69    0.36      0      0      0       0      52 19.85
 2014 207    65    49   22.0      4   2.87   2755   2278      0    777   5034   5475      0    0.0  0.000    441      0  0.649  0.767  0.000  0.000  0.000  0.000  0.000   2.36   0.00   0.08      0    441    104.3   1.60   0.00   1.00    3.98    3.85    3.59    1.08    0.69    0.37      0      0      0       0      52 19.95
 2014 208    66    50   22.0      4   2.79   2722   2352      0    777   5075   5533      0    0.0  0.000    458      0  0.608  0.739  0.000  0.000  0.000  0.000  0.000   2.35   0.00   0.08      0    458    102.4   1.60   0.00   1.00    3.96    3.85    3.59    1.08    0.69    0.37      0      0      0       0      52 20.40
 2014 209    67    51   22.0      4   2.68   2686   2425      0    776   5112   5578      0    0.0  0.000    467      0  0.791  0.861  0.000  0.000  0.000  0.000  0.000   2.33   0.00   0.08      0    467     99.6   1.60   0.00   1.00    3.94    3.84    3.58    1.08    0.69    0.37      0      0      0       0      52 20.35
 2014 210    68    52   22.0      4   2.60   2648   2481      0    776   5129   5613      0    0.0  0.000    485      0  0.535  0.691  0.000  0.000  0.000  0.000  0.000   2.32   0.00   0.09      0    485     98.4   1.60   0.00   1.00    3.92    3.84    3.58    1.08    0.69    0.37      0      0      0       0      52 19.85
 2014 211    69    53   22.0      4   2.50   2606   2543      0    775   5149   5640      0    0.0  0.000    491      0  0.816  0.878  0.000  0.000  0.000  0.000  0.000   2.31   0.00   0.09      0    491     95.9   1.60   0.00   1.00    3.90    3.83    3.57    1.08    0.69    0.38      0      0      0       0      52 20.00
 2014 212    70    54   22.0      4   2.43   2561   2590      0    774   5152   5657      0    0.0  0.000    506      0  0.588  0.726  0.000  0.000  0.000  0.000  0.000   2.31   0.00   0.09      0    506     94.7   1.60   0.00   1.00    3.88    3.82    3.56    1.08    0.69    0.38      0      0      0       0      52 20.20
 2014 213    71    55   22.0      4   2.32   2514   2643      0    772   5157   5668      0    0.0  0.000    511      0  0.829  0.887  0.000  0.000  0.000  0.000  0.000   2.31   0.00   0.09      0    511     92.5   1.60   0.00   1.00    3.86    3.81    3.56    1.07    0.69    0.38      0      0      0       0      52 19.90
 2014 214    72    56   22.0      4   2.25   2463   2686      0    771   5149   5671      0    0.0  0.000    522      0  0.647  0.765  0.000  0.000  0.000  0.000  0.000   2.31   0.00   0.09      0    522     91.3   1.60   0.00   1.00    3.84    3.80    3.55    1.07    0.69    0.38      0      0      0       0      52 20.40
 2014 215    73    57   22.0      4   2.16   2410   2730      0    769   5140   5669      0    0.0  0.000    529      0  0.761  0.841  0.000  0.000  0.000  0.000  0.000   2.32   0.00   0.09      0    529     89.8   1.60   0.00   1.00    3.82    3.78    3.53    1.07    0.69    0.38      0      0      0       0      52 19.95
 2014 216    74    58   22.0      5   2.07   2410   2730     25    772   5140   5693    900    2.7  0.004    554      6  0.864  0.910  0.000  0.000  0.000  0.000  0.000   2.31   4.45   0.10      0    554     85.9   1.60   0.00   1.00    3.84    3.79    3.54    1.07    0.69    0.39      0      0      0       0      52 20.05
 2014 217    75    59   22.0      5   2.07   2410   2730     70    847   5140   5739    900    7.8  0.012    600      6  0.000  0.000  0.000  0.000  0.000  0.000  0.000   2.29  11.76   0.10      0    600     85.9   1.60   0.00   1.00    4.00    4.00    3.83    1.16    0.77    0.47      0      0      0       0      52 20.20
 2014 218    76    60   22.0      5   2.07   2410   2730    115    906   5140   5784    900   12.8  0.020    644      6  0.000  0.000  0.000  0.000  0.000  0.000  0.000   2.28  17.90   0.11      0    644     85.9   1.60   0.00   1.00    4.00    4.00    4.00    1.23    0.82    0.53      0      0      0       0      52 20.35
 2014 219    77    61   22.0      5   2.07   2410   2730    160    948   5140   5829    900   17.8  0.027    689      6  0.000  0.000  0.000  0.000  0.000  0.000  0.000   2.26  23.21   0.12      0    689     85.9   1.60   0.00   1.00    4.00    4.00    4.00    1.29    0.86    0.57      0      0      0       0      52 20.40
 2014 220    78    62   22.0      5   2.07   2410   2730    208   1009   5140   5876    900   23.1  0.035    737      6  0.000  0.000  0.000  0.000  0.000  0.000  0.000   2.24  28.20   0.13      0    737     85.9   1.60   0.00   1.00    4.00    4.00    4.00    1.37    0.92    0.63      0      0      0       0      52 19.90
 2014 221    79    63   22.0      5   2.07   2410   2730    260   1060   5140   5929    900   28.9  0.044    789      6  0.000  0.000  0.000  0.375  0.000  0.000  0.000   2.23  32.96   0.13      0    789     85.9   1.60   0.00   1.00    4.00    4.00    4.00    1.44    0.97    0.67      0      0      0       0      52 19.25
 2014 222    80    64   22.0      5   2.07   2410   2730    313   1104   5140   5982    900   34.8  0.052    842      6  0.000  0.000  0.000  0.427  0.000  0.000  0.000   2.21  37.18   0.14      0    842     85.9   1.60   0.00   1.00    4.00    4.00    4.00    1.51    1.01    0.71      0      0      0       0      52 19.15
 2014 223    81    65   22.0      5   2.07   2410   2730    360   1175   5140   6028    900   40.0  0.060    889      6  0.000  0.000  0.000  0.393  0.000  0.000  0.000   2.19  40.47   0.15      0    889     85.9   1.60   0.00   1.00    4.00    4.00    4.00    1.62    1.08    0.77      0      0      0       0      52 20.10
 2014 224    82    66   22.0      5   2.07   2410   2730    405   1246   5140   6074    900   45.0  0.067    934      6  0.000  0.000  0.000  0.378  0.000  0.000  0.000   2.18  43.35   0.15      0    934     85.9   1.60   0.00   1.00    4.00    4.00    4.00    1.73    1.15    0.82      0      0      0       0      52 20.30
 2014 225    83    67   22.0      5   2.07   2410   2730    449   1298   5140   6117    900   49.9  0.073    978      6  0.000  0.000  0.000  0.325  0.000  0.000  0.000   2.16  45.89   0.16      0    978     85.9   1.60   0.00   1.00    4.00    4.00    4.00    1.81    1.21    0.86      0      0      0       0      52 20.50
 2014 226    84    68   22.0      5   2.07   2410   2730    497   1344   5140   6166    900   55.3  0.081   1026      6  0.000  0.000  0.000  0.155  0.000  0.000  0.000   2.14  48.45   0.17      0   1026     85.9   1.60   0.00   1.00    4.00    4.00    4.00    1.89    1.26    0.90      0      0      0       0      52 19.80
 2014 227    85    69   22.0      5   2.07   2410   2730    543   1422   5140   6212    900   60.3  0.087   1072      6  0.000  0.000  0.000  0.000  0.000  0.000  0.000   2.13  50.64   0.17      0   1072     85.9   1.60   0.00   1.00    4.00    4.00    4.00    2.01    1.35    0.95      0      0      0       0      52 20.25
 2014 228    86    70   22.0      5   2.07   2410   2730    588   1488   5140   6256    900   65.3  0.094   1117      6  0.000  0.000  0.000  0.000  0.000  0.000  0.000   2.11  52.63   0.18      0   1117     85.9   1.60   0.00   1.00    4.00    4.00    4.00    2.11    1.43    0.99      0      0      0       0      52 20.35
 2014 229    87    71   22.0      5   2.07   2410   2730    625   1558   5140   6293    900   69.4  0.099   1154      6  0.000  0.000  0.000  0.000  0.000  0.000  0.000   2.10  54.15   0.18      0   1154     85.9   1.60   0.00   1.00    4.00    4.00    4.00    2.23    1.51    1.03      0      0      0       0      52 21.37
 2014 230    88    72   22.0      5   2.07   2410   2730    669   1586   5140   6337    900   74.3  0.106   1198      6  0.000  0.000  0.000  0.000  0.000  0.000  0.000   2.08  55.83   0.19      0   1198     85.9   1.60   0.00   1.00    4.00    4.00    4.00    2.27    1.54    1.07      0      0      0       0      52 20.50
 2014 231    89    73   22.0      5   2.07   2410   2730    696   1606   5140   6365    900   77.4  0.109   1225      6  0.000  0.000  0.000  0.176  0.000  0.000  0.000   2.08  56.83   0.19      0   1225     85.9   1.60   0.00   1.00    4.00    4.00    4.00    2.30    1.57    1.09      0      0      0       0      52 22.46
 2014 232    90    74   22.0      5   2.07   2410   2730    742   1669   5140   6411    900   82.5  0.116   1271      6  0.000  0.000  0.000  0.158  0.000  0.000  0.000   2.06  58.37   0.20      0   1271     85.9   1.60   0.00   1.00    4.00    4.00    4.00    2.39    1.64    1.15      0      0      0       0      52 20.25
 2014 233    91    75   22.0      5   2.07   2410   2730    790   1723   5140   6458    900   87.8  0.122   1319      6  0.000  0.000  0.000  0.068  0.000  0.000  0.000   2.04  59.89   0.20      0   1319     85.9   1.60   0.00   1.00    4.00    4.00    4.00    2.47    1.71    1.21      0      0      0       0      52 19.90
 2014 234    92    76   22.0      5   2.07   2410   2730    834   1771   5140   6502    900   92.7  0.128   1363      6  0.000  0.000  0.000  0.174  0.000  0.000  0.000   2.03  61.18   0.21      0   1363     85.9   1.60   0.00   1.00    4.00    4.00    4.00    2.55    1.76    1.27      0      0      0       0      52 20.50
 2014 235    93    77   22.0      5   2.07   2410   2730    882   1811   5140   6551    900   98.1  0.135   1411      6  0.000  0.000  0.000  0.192  0.000  0.000  0.000   2.01  62.51   0.22      0   1411     85.9   1.60   0.00   1.00    4.00    4.00    4.00    2.61    1.81    1.31      0      0      0       0      52 19.80
 2014 236    94    78   22.0      5   2.07   2410   2730    926   1862   5140   6595    900  103.0  0.140   1455      6  0.000  0.000  0.000  0.199  0.000  0.000  0.000   2.00  63.65   0.22      0   1455     85.9   1.60   0.00   1.00    4.00    4.00    4.00    2.69    1.87    1.37      0      0      0       0      52 20.45
 2014 237    95    79   22.0      5   2.07   2410   2730    974   1899   5140   6643    900  108.3  0.147   1503      6  0.000  0.000  0.000  0.138  0.000  0.000  0.000   1.98  64.81   0.23      0   1503     85.9   1.60   0.00   1.00    4.00    4.00    4.00    2.75    1.92    1.42      0      0      0       0      52 19.90
 2014 238    96    80   22.0      5   2.07   2410   2730   1028   1926   5140   6697    900  114.3  0.154   1557      6  0.000  0.000  0.000  0.061  0.000  0.000  0.000   1.96  66.03   0.23      0   1557     85.9   1.60   0.00   1.00    4.00    4.00    4.00    2.79    1.96    1.45      0      0      0       0      52 18.15
 2014 239    97    81   22.0      5   2.07   2410   2730   1071   1976   5140   6740    900  119.0  0.159   1600      6  0.000  0.000  0.000  0.011  0.000  0.000  0.000   1.95  66.93   0.24      0   1600     85.9   1.60   0.00   1.00    4.00    4.00    4.00    2.87    2.02    1.51      0      0      0       0      52 20.70
 2014 240    98    82   22.0      5   2.07   2410   2730   1120   2037   5140   6788    900  124.5  0.165   1649      6  0.000  0.000  0.000  0.000  0.000  0.000  0.000   1.93  67.91   0.24      0   1649     85.9   1.60   0.00   1.00    4.00    4.00    4.00    2.97    2.10    1.59      0      0      0       0      52 19.75
 2014 241    99    83   22.0      5   2.00   2410   2730   1168   2103   5140   6836    900  129.8  0.171   1697      6  0.000  0.000  0.000  0.000  0.000  0.000  0.000   1.91  68.82   0.25      0   1697     83.0   1.60   0.00   1.00    4.00    4.00    4.00    3.07    2.18    1.66      0      0      0       0      52 19.90
 2014 242   100    84   22.0      5   1.90   2410   2730   1214   2170   5140   6883    900  135.0  0.176   1743      6  0.000  0.000  0.000  0.000  0.000  0.000  0.000   1.90  69.65   0.25      0   1743     78.8   1.60   0.00   1.00    4.00    4.00    4.00    3.17    2.26    1.74      0      0      0       0      52 20.10
 2014 243   101    85   22.0      5   1.80   2410   2730   1265   2228   5140   6934    900  140.6  0.182   1794      6  0.000  0.000  0.000  0.000  0.000  0.000  0.000   1.88  70.51   0.26      0   1794     74.5   1.60   0.00   1.00    4.00    4.00    4.00    3.26    2.34    1.81      0      0      0       0      52 19.45
 2014 244   102    86   22.0      5   1.68   2410   2730   1311   2284   5140   6980    900  145.8  0.188   1840      6  0.000  0.000  0.000  0.000  0.000  0.000  0.000   1.86  71.26   0.26      0   1840     69.8   1.60   0.00   1.00    4.00    4.00    4.00    3.35    2.41    1.88      0      0      0       0      52 20.15
 2014 245   103    87   22.0      5   1.56   2410   2730   1357   2294   5140   7026    900  150.9  0.193   1886      6  0.000  0.000  0.000  0.007  0.000  0.000  0.000   1.85  71.95   0.27      0   1886     64.8   1.60   0.00   1.00    4.00    4.00    4.00    3.36    2.42    1.89      0      0      0       0      52 20.20
 2014 246   104    88   22.0      5   1.44   2410   2730   1404   2334   5140   7073    900  156.1  0.199   1933      6  0.000  0.000  0.000  0.000  0.000  0.000  0.000   1.83  72.63   0.27      0   1933     59.6   1.60   0.00   1.00    4.00    4.00    4.00    3.42    2.47    1.94      0      0      0       0      52 20.05
 2014 247   105    89   22.0      5   1.44   2410   2730   1404   2334   5140   7073    900  156.1  0.199   1933      6  0.000  0.000  0.000  0.000  0.000  0.000  0.000   1.83  72.63   0.27      0   1933     59.6   1.60   0.00   1.00    4.00    4.00    4.00    3.48    2.52    1.99      0      0      0       0      52 20.79
 2014 248   106    90   22.0      5   1.44   2410   2730   1404   2334   5140   7073    900  156.1  0.199   1933      6  0.000  0.000  0.000  0.000  0.000  0.000  0.000   1.83  72.63   0.27      0   1933     59.6   1.60   0.00   1.00    4.00    4.00    4.00    3.55    2.57    2.03      0      0      0       0      52 20.55
 2014 249   107    91   22.0      5   1.44   2410   2730   1404   2334   5140   7073    900  156.1  0.199   1933      6  0.000  0.000  0.000  0.000  0.000  0.000  0.000   1.83  72.63   0.27      0   1933     59.6   1.60   0.00   1.00    4.00    4.00    4.00    3.61    2.62    2.08      0      0      0       0      52  0.00
