*GROWTH ASPECTS OUTPUT FILE

*DSSAT Cropping System Model Ver. 4.6.1.000 -release      AUG 23, 2017; 14:09:34
                                                                                
*RUN   1        : P1                        MZCER046 0\000000    1              
 MODEL          : MZCER046 - Maize                                              
 EXPERIMENT     : 0\000000 BN Calibracion Cerete 2013                           
 DATA PATH      : C:\L\0\00000                                                  
 TREATMENT  1   : P1                        MZCER046                            
  
!                                                                                                                                                                                                                                      Root Dens. (cm/cm3) by soil depth (cm):
!                                                                                                                                                                                                                                      0-5    5-15   15-30   30-53   53-77  77-100
@YEAR DOY   DAS   DAP   L#SD   GSTD   LAID   LWAD   SWAD   GWAD   RWAD   VWAD   CWAD   G#AD   GWGD   HIAD   PWAD   P#AD   WSPD   WSGD   NSTD   EWSD  PST1A  PST2A   KSTD   LN%D   SH%D   HIPD   PWDD   PWTD     SLAD   CHTD   CWID   RDPD    RL1D    RL2D    RL3D    RL4D    RL5D    RL6D   CDAD   LDAD   SDAD   SNW0C   SNW1C  DTTD
 2013 105     1     0    0.0      0   0.00      0      0      0      0      0      0      0    0.0  0.000      0      0  0.000  0.000  0.000  0.000  0.000  0.000  0.000   0.00   0.00   0.00      0      0      0.0   0.00   0.00   0.05    0.00    0.00    0.00    0.00    0.00    0.00      0      0      0       0       0 20.95
 2013 106     2     1    0.0      0   0.00      0      0      0      0      0      0      0    0.0  0.000      0      0  0.000  0.000  0.000  0.000  0.000  0.000  0.000   0.00   0.00   0.00      0      0      0.0   0.00   0.00   0.08    0.00    0.00    0.00    0.00    0.00    0.00      0      0      0       0       0 22.14
 2013 107     3     2    0.0      0   0.00      0      0      0      0      0      0      0    0.0  0.000      0      0  0.000  0.000  0.000  0.000  0.000  0.000  0.000   0.00   0.00   0.00      0      0      0.0   0.00   0.00   0.12    0.00    0.00    0.00    0.00    0.00    0.00      0      0      0       0       0 22.43
 2013 108     4     3    0.0      0   0.00      0      0      0      0      0      0      0    0.0  0.000      0      0  0.000  0.000  0.000  0.000  0.000  0.000  0.000   0.00   0.00   0.00      0      0      0.0   0.00   0.00   0.15    0.00    0.00    0.00    0.00    0.00    0.00      0      0      0       0       0 21.50
 2013 109     5     4    0.0      0   0.00      0      0      0      0      0      0      0    0.0  0.000      0      0  0.000  0.000  0.000  0.000  0.000  0.000  0.000   0.00   0.00   0.00      0      0      0.0   0.00   0.00   0.18    0.00    0.00    0.00    0.00    0.00    0.00      0      0      0       0       0 17.84
 2013 110     6     5    2.0      1   0.00     12     12      0     12     25     25      0    0.0  0.000      0      0  0.000  0.000  0.012  0.000  0.000  0.000  0.000   4.40   0.00   0.00      0      0     36.4   0.00   0.00   0.20    0.25    0.12    0.01    0.00    0.00    0.00      0      0      0       0       0 19.69
 2013 111     7     6    2.0      1   0.01     12     12      0     13     25     25      0    0.0  0.000      0      0  0.000  0.000  0.009  0.000  0.000  0.000  0.000   4.40   0.00   0.00      0      0     68.9   0.00   0.00   0.21    0.25    0.13    0.01    0.00    0.00    0.00      0      0      0       0       0 17.24
 2013 112     8     7    3.0      1   0.01     12     12      0     14     25     25      0    0.0  0.000      0      0  0.000  0.000  0.000  0.000  0.000  0.000  0.000   4.40   0.00   0.00      0      0    112.1   0.01   0.00   0.23    0.26    0.13    0.02    0.00    0.00    0.00      0      0      0       0       0 19.74
 2013 113     9     8    3.0      1   0.02     12     12      0     15     25     25      0    0.0  0.000      0      0  0.000  0.000  0.000  0.000  0.000  0.000  0.000   4.40   0.00   0.00      0      0    156.9   0.01   0.00   0.25    0.27    0.14    0.02    0.00    0.00    0.00      0      0      0       0       0 18.50
 2013 114    10     9    4.0      1   0.04     12     12      0     18     25     25      0    0.0  0.000      0      0  0.000  0.000  0.000  0.000  0.000  0.000  0.000   4.40   0.00   0.00      0      0    343.5   0.02   0.00   0.27    0.30    0.17    0.03    0.00    0.00    0.00      0      0      0       0       0 20.61
 2013 115    11    10    5.0      1   0.07     23     12      0     19     36     36      0    0.0  0.000      0      0  0.000  0.000  0.000  0.000  0.000  0.000  0.000   3.04   0.00   0.00      0      0    301.8   0.04   0.00   0.29    0.31    0.18    0.04    0.00    0.00    0.00      0      0      0       0       0 20.85
 2013 116    12    11    5.0      1   0.11     39     12      0     22     51     51      0    0.0  0.000      0      0  0.000  0.000  0.000  0.000  0.000  0.000  0.000   2.85   0.00   0.00      0      0    272.6   0.06   0.00   0.31    0.34    0.20    0.05    0.00    0.00    0.00      0      0      0       0       0 21.66
 2013 117    13    12    6.0      1   0.14     57     12      0     28     70     70      0    0.0  0.000      0      0  0.000  0.000  0.000  0.000  0.000  0.000  0.000   2.92   0.00   0.00      0      0    251.7   0.08   0.00   0.33    0.40    0.25    0.08    0.00    0.00    0.00      0      0      0       0       0 21.04
 2013 118    14    13    6.0      1   0.19     79     12      0     35     92     92      0    0.0  0.000      0      0  0.000  0.000  0.000  0.000  0.000  0.000  0.000   2.96   0.00   0.00      0      0    235.2   0.10   0.00   0.34    0.44    0.30    0.11    0.00    0.00    0.00      0      0      0       0       0 20.51
 2013 119    15    14    7.0      2   0.24    100     12      0     41    112    112      0    0.0  0.000      0      0  0.000  0.000  0.000  0.000  0.000  0.000  0.000   3.15   0.00   0.00      0      0    239.8   0.13   0.00   0.35    0.44    0.36    0.15    0.00    0.00    0.00      0      0      0       0       1 18.72
 2013 120    16    15    7.0      2   0.30    135     12      0     56    148    148      0    0.0  0.000      0      0  0.000  0.000  0.008  0.000  0.000  0.000  0.000   2.95   0.00   0.00      0      0    225.1   0.16   0.00   0.37    0.44    0.51    0.24    0.00    0.00    0.00      0      0      0       0       1 21.05
 2013 121    17    16    8.0      2   0.37    173     12      0     64    186    186      0    0.0  0.000      0      0  0.000  0.000  0.000  0.000  0.000  0.000  0.000   3.06   0.00   0.00      0      0    213.9   0.20   0.00   0.39    0.48    0.57    0.29    0.01    0.00    0.00      0      0      0       0       1 18.42
 2013 122    18    17    8.0      2   0.46    226     12      0     83    238    238      0    0.0  0.000      0      0  0.000  0.000  0.000  0.000  0.000  0.000  0.000   2.95   0.00   0.00      0      0    202.4   0.25   0.00   0.41    0.58    0.70    0.40    0.02    0.00    0.00      0      0      0       0       1 21.54
 2013 123    19    18    9.0      2   0.53    271     12      0     91    283    283      0    0.0  0.000      0      0  0.000  0.000  0.000  0.000  0.000  0.000  0.000   3.78   0.00   0.00      0      0    194.9   0.28   0.00   0.43    0.62    0.73    0.45    0.03    0.00    0.00      0      0      0       0       2 17.34
 2013 124    20    19    9.0      2   0.63    339     12      0    122    351    351      0    0.0  0.000      0      0  0.000  0.000  0.000  0.000  0.000  0.000  0.000   3.73   0.00   0.00      0      0    186.1   0.34   0.00   0.45    0.76    0.86    0.66    0.07    0.00    0.00      0      0      0       0       2 20.68
 2013 125    21    20   10.0      2   0.72    398     12      0    132    410    410      0    0.0  0.000      0      0  0.000  0.000  0.000  0.000  0.000  0.000  0.000   3.69   0.00   0.00      0      0    179.9   0.39   0.00   0.47    0.79    0.90    0.73    0.09    0.00    0.00      0      0      0       0       3 17.55
 2013 126    22    21   10.0      3   0.83    482     13      0    152    495    495      0    0.0  0.000      0      0  0.000  0.000  0.000  0.000  0.000  0.000  0.000   3.61   0.00   0.00      0      0    172.6   0.45   0.00   0.49    0.86    0.97    0.85    0.13    0.00    0.00      0      0      0       0       3 20.01
 2013 127    23    22   11.0      3   0.92    544     14      0    155    557    557      0    0.0  0.000      0      0  0.000  0.000  0.000  0.000  0.000  0.000  0.000   3.55   0.00   0.00      0      0    168.9   0.49   0.00   0.50    0.87    0.98    0.87    0.13    0.00    0.00      0      0      0       0       4 15.70
 2013 128    24    23   11.0      3   1.05    641     17      0    183    658    658      0    0.0  0.000      0      0  0.000  0.000  0.000  0.000  0.000  0.000  0.000   3.49   0.00   0.00      0      0    163.9   0.57   0.00   0.52    0.95    1.07    1.02    0.21    0.00    0.00      0      0      0       0       5 18.60
 2013 129    25    24   11.0      3   1.19    748     23      0    190    772    772      0    0.0  0.000      0      0  0.000  0.000  0.000  0.000  0.000  0.000  0.000   3.43   0.00   0.00      0      0    159.3   0.64   0.00   0.54    0.98    1.08    1.06    0.24    0.00    0.00      0      0      0       0       6 18.45
 2013 130    26    25   12.0      3   1.37    885     37      0    234    922    922      0    0.0  0.000      0      0  0.000  0.000  0.000  0.000  0.000  0.000  0.000   3.37   0.00   0.00      0      0    154.4   0.74   0.00   0.56    1.99    1.08    1.12    0.34    0.02    0.00      0      0      0       0       7 19.25
 2013 131    27    26   12.0      3   1.55   1030     57      0    246   1088   1088      0    0.0  0.000      0      0  0.000  0.000  0.000  0.000  0.000  0.000  0.000   3.32   0.00   0.00      0      0    150.1   0.83   0.00   0.58    2.29    1.08    1.12    0.36    0.02    0.00      0      0      0       0       8 19.80
 2013 132    28    27   13.0      3   1.73   1180     87      0    279   1267   1267      0    0.0  0.000      0      0  0.000  0.000  0.000  0.000  0.000  0.000  0.000   3.26   0.00   0.00      0      0    146.3   0.93   0.00   0.61    2.79    1.37    1.12    0.39    0.04    0.00      0      0      0       0       9 19.80
 2013 133    29    28   13.0      3   1.89   1323    124      0    288   1446   1446      0    0.0  0.000      0      0  0.000  0.000  0.000  0.000  0.000  0.000  0.000   3.20   0.00   0.00      0      0    143.1   1.02   0.00   0.62    2.88    1.46    1.13    0.40    0.04    0.00      0      0      0       0      11 18.70
 2013 134    30    29   14.0      3   2.08   1482    176      0    310   1659   1659      0    0.0  0.000      0      0  0.000  0.000  0.000  0.000  0.000  0.000  0.000   3.15   0.00   0.00      0      0    140.0   1.12   0.00   0.65    3.10    1.65    1.18    0.41    0.05    0.00      0      0      0       0      12 20.05
 2013 135    31    30   14.0      3   2.21   1601    224      0    318   1825   1825      0    0.0  0.000      0      0  0.000  0.000  0.000  0.000  0.000  0.000  0.000   3.10   0.00   0.00      0      0    138.0   1.19   0.00   0.66    3.14    1.71    1.21    0.41    0.06    0.00      0      0      0       0      14 17.55
 2013 136    32    31   15.0      3   2.39   1765    305      0    338   2070   2070      0    0.0  0.000      0      0  0.000  0.000  0.000  0.000  0.000  0.000  0.000   3.05   0.00   0.00      0      0    135.4   1.29   0.00   0.68    3.26    1.86    1.29    0.43    0.07    0.00      0      0      0       0      15 19.85
 2013 137    33    32   15.0      3   2.48   1847    352      0    343   2199   2199      0    0.0  0.000      0      0  0.000  0.000  0.000  0.000  0.000  0.000  0.000   3.00   0.00   0.00      0      0    134.2   1.34   0.00   0.70    3.27    1.90    1.32    0.43    0.08    0.00      0      0      0       0      17 17.05
 2013 138    34    33   16.0      3   2.65   2009    462      0    402   2472   2472      0    0.0  0.000      0      0  0.000  0.000  0.000  0.000  0.000  0.000  0.000   2.95   0.00   0.00      0      0    132.1   1.43   0.00   0.72    3.48    2.29    1.61    0.48    0.12    0.00      0      0      0       0      19 19.10
 2013 139    35    34   16.0      3   2.76   2109    540      0    410   2648   2648      0    0.0  0.000      0      0  0.000  0.000  0.000  0.000  0.000  0.000  0.000   2.90   0.00   0.00      0      0    130.9   1.49   0.00   0.74    3.50    2.33    1.64    0.49    0.13    0.00      0      0      0       0      21 17.35
 2013 140    36    35   17.0      3   2.93   2267    681      0    453   2949   2949      0    0.0  0.000      0      0  0.000  0.000  0.000  0.000  0.000  0.000  0.000   2.86   0.00   0.00      0      0    129.0   1.58   0.00   0.76    3.63    2.59    1.82    0.53    0.19    0.00      0      0      0       0      23 18.20
 2013 141    37    36   17.0      3   3.03   2367    782      0    462   3150   3150      0    0.0  0.000      0      0  0.000  0.000  0.000  0.000  0.000  0.000  0.000   2.81   0.00   0.00      0      0    127.9   1.60   0.00   0.78    3.62    2.63    1.86    0.55    0.21    0.00      0      0      0       0      25 17.30
 2013 142    38    37   18.0      3   3.17   2501    931      0    475   3433   3436      0    0.0  0.000      3      0  0.000  0.000  0.000  0.000  0.000  0.000  0.000   2.73   0.00   0.00      0      3    126.6   1.60   0.00   0.80    3.60    2.66    1.90    0.57    0.25    0.01      0      0      0       0      27 19.10
 2013 143    39    38   18.0      3   3.29   2627   1054      0    487   3681   3687      0    0.0  0.000      6      0  0.000  0.000  0.000  0.000  0.000  0.000  0.000   2.63   0.00   0.00      0      6    125.4   1.60   0.00   0.81    3.60    2.66    1.90    0.60    0.31    0.03      0      0      0       0      30 16.45
 2013 144    40    39   18.0      3   3.40   2731   1199      0    499   3929   3939      0    0.0  0.000     10      0  0.000  0.000  0.000  0.000  0.000  0.000  0.000   2.53   0.00   0.00      0     10    124.4   1.60   0.00   0.83    3.59    2.66    1.90    0.61    0.35    0.06      0      0      0       0      32 18.00
 2013 145    41    40   19.0      3   3.52   2856   1412      0    516   4268   4290      0    0.0  0.000     22      0  0.000  0.000  0.000  0.000  0.000  0.000  0.000   2.37   0.00   0.01      0     22    123.4   1.60   0.00   0.85    3.59    2.66    1.91    0.62    0.41    0.12      0      0      0       0      35 18.90
 2013 146    42    41   19.0      3   3.59   2931   1557      0    526   4487   4517      0    0.0  0.000     30      0  0.000  0.000  0.005  0.000  0.000  0.000  0.000   2.30   0.00   0.01      0     30    122.7   1.60   0.00   0.87    3.59    2.67    1.92    0.62    0.44    0.17      0      0      0       0      37 16.75
 2013 147    43    42   20.0      3   3.68   3027   1757      0    541   4784   4836      0    0.0  0.000     52      0  0.000  0.000  0.027  0.000  0.000  0.000  0.000   2.20   0.00   0.01      0     52    121.5   1.60   0.00   0.89    3.60    2.68    1.94    0.62    0.45    0.26      0      0      0       0      40 19.20
 2013 148    44    43   20.0      3   3.74   3106   1933      0    554   5039   5116      0    0.0  0.000     77      0  0.000  0.000  0.034  0.000  0.000  0.000  0.000   2.12   0.00   0.01      0     77    120.4   1.60   0.00   0.91    3.61    2.70    1.96    0.63    0.46    0.33      0      0      0       0      43 19.15
 2013 149    45    44   21.0      3   3.80   3190   2110      0    578   5301   5428      0    0.0  0.000    127      0  0.000  0.000  0.049  0.000  0.000  0.000  0.000   2.04   0.00   0.02      0    127    119.0   1.60   0.00   0.93    3.66    2.75    2.01    0.64    0.47    0.45      0      0      0       0      45 18.00
 2013 150    46    45   21.0      3   3.84   3259   2261      0    590   5520   5696      0    0.0  0.000    175      0  0.000  0.000  0.058  0.000  0.000  0.000  0.000   2.15   0.00   0.03      0    175    117.7   1.60   0.00   0.95    4.00    2.74    2.01    0.64    0.47    0.45      0      0      0       0      48 18.30
 2013 151    47    46   22.0      3   3.89   3331   2411      0    603   5742   5988      0    0.0  0.000    246      0  0.000  0.000  0.032  0.000  0.000  0.000  0.000   2.28   0.00   0.04      0    246    116.8   1.60   0.00   0.97    4.00    2.73    2.00    0.64    0.47    0.45      0      0      0       0      51 18.60
 2013 152    48    47   22.0      3   3.97   3419   2558      0    620   5977   6346      0    0.0  0.000    369      0  0.000  0.000  0.000  0.000  0.000  0.000  0.000   2.39   0.00   0.06      0    369    116.2   1.60   0.00   0.99    4.00    2.72    2.00    0.63    0.47    0.45      0      0      0       0      54 18.75
 2013 153    49    48   22.0      3   4.06   3506   2665      0    645   6171   6695      0    0.0  0.000    524      0  0.000  0.000  0.000  0.000  0.000  0.000  0.000   2.37   0.00   0.08      0    524    115.7   1.60   0.00   1.00    4.00    2.83    2.00    0.63    0.47    0.45      0      0      0       0      57 18.20
 2013 154    50    49   22.0      3   4.12   3578   2761      0    658   6338   6984      0    0.0  0.000    646      0  0.000  0.000  0.000  0.000  0.000  0.000  0.000   2.32   0.00   0.09      0    646    115.3   1.60   0.00   1.00    4.00    2.92    1.99    0.63    0.47    0.45      0      0      0       0      60 18.05
 2013 155    51    50   22.0      3   4.20   3662   2824      0    674   6486   7323      0    0.0  0.000    837      0  0.000  0.000  0.000  0.000  0.000  0.000  0.000   2.31   0.00   0.11      0    837    114.7   1.60   0.00   1.00    4.00    3.04    1.99    0.63    0.46    0.45      0      0      0       0      64 18.30
 2013 156    52    51   22.0      4   4.10   3624   2966      0    687   6591   7680      0    0.0  0.000   1090      0  0.000  0.000  0.000  0.000  0.000  0.000  0.000   2.30   0.00   0.14      0   1090    113.1   1.60   0.00   1.00    4.00    3.16    1.98    0.62    0.46    0.45      0      0      0       0      67 18.50
 2013 157    53    52   22.0      4   4.08   3584   3053      0    696   6637   7928      0    0.0  0.000   1291      0  0.000  0.000  0.000  0.000  0.000  0.000  0.000   2.29   0.00   0.16      0   1291    113.9   1.60   0.00   1.00    4.00    3.24    1.97    0.62    0.46    0.45      0      0      0       0      67 17.90
 2013 158    54    53   22.0      4   4.06   3539   3145      0    709   6684   8242      0    0.0  0.000   1558      0  0.000  0.000  0.000  0.000  0.000  0.000  0.000   2.27   0.00   0.19      0   1558    114.7   1.60   0.00   1.00    4.00    3.35    1.97    0.62    0.46    0.44      0      0      0       0      67 18.05
 2013 159    55    54   22.0      4   4.04   3492   3225      0    721   6717   8562      0    0.0  0.000   1844      0  0.000  0.000  0.000  0.000  0.000  0.000  0.000   2.26   0.00   0.22      0   1844    115.7   1.60   0.00   1.00    4.00    3.47    1.96    0.62    0.46    0.44      0      0      0       0      67 17.95
 2013 160    56    55   22.0      4   4.02   3441   3295      0    733   6737   8880      0    0.0  0.000   2143      0  0.000  0.000  0.000  0.000  0.000  0.000  0.000   2.25   0.00   0.24      0   2143    116.8   1.60   0.00   1.00    4.00    3.63    1.96    0.61    0.45    0.44      0      0      0       0      67 19.00
 2013 161    57    56   22.0      4   4.00   3387   3343      0    742   6730   9105      0    0.0  0.000   2375      0  0.000  0.000  0.000  0.000  0.000  0.000  0.000   2.26   0.00   0.26      0   2375    118.1   1.60   0.00   1.00    4.00    3.78    1.95    0.61    0.45    0.44      0      0      0       0      67 18.50
 2013 162    58    57   22.0      4   3.98   3330   3406      0    751   6735   9336      0    0.0  0.000   2601      0  0.000  0.075  0.000  0.000  0.000  0.000  0.000   2.26   0.00   0.28      0   2601    119.6   1.60   0.00   1.00    4.00    3.97    1.94    0.61    0.45    0.44      0      0      0       0      67 18.25
 2013 163    59    58   22.0      4   3.94   3269   3561      0    759   6830   9563      0    0.0  0.000   2733      0  0.194  0.463  0.000  0.000  0.000  0.000  0.000   2.22   0.00   0.29      0   2733    120.6   1.60   0.00   1.00    4.00    4.00    1.94    0.61    0.45    0.44      0      0      0       0      67 18.60
 2013 164    60    59   22.0      4   3.94   3204   3613      0    772   6817   9876      0    0.0  0.000   3059      0  0.000  0.000  0.000  0.000  0.000  0.000  0.000   2.23   0.00   0.31      0   3059    122.9   1.60   0.00   1.00    4.00    4.00    1.93    0.61    0.45    0.44      0      0      0       0      67 19.80
 2013 165    61    60   22.0      5   3.84   3204   3613    131    786   6817  10007   2886    4.5  0.013   3190      6  0.508  0.672  0.000  0.000  0.000  0.000  0.000   2.19   4.11   0.32      0   3190    119.8   1.60   0.00   1.00    4.00    4.00    1.93    0.60    0.45    0.43      0      0      0       0      67 19.25
 2013 166    62    61   22.0      5   3.73   3204   3613    254    791   6817  10130   2886    8.8  0.025   3313      6  0.564  0.710  0.000  0.000  0.000  0.000  0.000   2.16   7.66   0.33      0   3313    116.4   1.60   0.00   1.00    3.98    4.00    1.92    0.60    0.44    0.43      0      0      0       0      67 19.40
 2013 167    63    62   22.0      5   3.60   3204   3613    349    795   6817  10225   2886   12.1  0.034   3408      6  0.691  0.795  0.000  0.000  0.000  0.000  0.000   2.13  10.24   0.33      0   3408    112.4   1.60   0.00   1.00    3.96    4.00    1.92    0.60    0.44    0.43      0      0      0       0      67 20.45
 2013 168    64    63   22.0      5   3.48   3204   3613    444    795   6817  10320   2886   15.4  0.043   3503      6  0.700  0.800  0.000  0.000  0.000  0.000  0.000   2.11  12.68   0.34      0   3503    108.5   1.60   0.00   1.00    3.94    4.00    1.91    0.60    0.44    0.43      0      0      0       0      67 20.40
 2013 169    65    64   22.0      5   3.35   3204   3611    542    791   6816  10416   2886   18.8  0.052   3600      6  0.749  0.833  0.000  0.000  0.000  0.000  0.000   2.08  15.04   0.35      0   3600    104.4   1.60   0.00   1.00    3.94    4.00    1.91    0.60    0.44    0.43      0      0      0       0      67 19.95
 2013 170    66    65   22.0      5   3.23   3204   3591    647    787   6796  10502   2886   22.4  0.062   3706      6  0.702  0.802  0.000  0.000  0.000  0.000  0.000   2.06  17.47   0.35      0   3706    100.8   1.60   0.00   1.00    3.94    4.00    1.91    0.60    0.44    0.43      0      0      0       0      67 19.65
 2013 171    67    66   22.0      5   3.10   3204   3575    741    783   6779  10579   2886   25.7  0.070   3800      6  0.794  0.863  0.000  0.000  0.000  0.000  0.000   2.04  19.50   0.36      0   3800     96.8   1.60   0.00   1.00    3.94    4.00    1.91    0.60    0.44    0.43      0      0      0       0      67 19.90
 2013 172    68    67   22.0      5   2.97   3204   3541    839    779   6745  10643   2886   29.1  0.079   3898      6  0.839  0.893  0.000  0.000  0.000  0.000  0.000   2.02  21.52   0.37      0   3898     92.7   1.60   0.00   1.00    3.94    4.00    1.91    0.60    0.44    0.43      0      0      0       0      67 19.25
 2013 173    69    68   22.0      5   2.85   3204   3506    932    775   6710  10701   2886   32.3  0.087   3990      6  0.820  0.881  0.000  0.000  0.000  0.000  0.000   2.00  23.35   0.37      0   3990     88.9   1.60   0.00   1.00    3.94    4.00    1.91    0.60    0.44    0.43      0      0      0       0      67 19.80
 2013 174    70    69   22.0      5   2.73   3204   3469   1022    771   6674  10754   2886   35.4  0.095   4080      6  0.814  0.877  0.000  0.000  0.000  0.000  0.000   1.99  25.04   0.38      0   4080     85.3   1.60   0.00   1.00    3.94    4.00    1.91    0.60    0.44    0.43      0      0      0       0      67 20.05
 2013 175    71    70   22.0      5   2.62   3204   3429   1111    767   6634  10804   2886   38.5  0.103   4170      6  0.839  0.893  0.000  0.000  0.000  0.000  0.000   1.98  26.65   0.39      0   4170     81.7   1.60   0.00   1.00    3.94    4.00    1.91    0.60    0.44    0.43      0      0      0       0      67 19.90
 2013 176    72    71   22.0      5   2.50   3204   3391   1196    763   6595  10850   2886   41.4  0.110   4254      6  0.882  0.922  0.000  0.000  0.000  0.000  0.000   1.96  28.11   0.39      0   4254     78.1   1.60   0.00   1.00    3.94    4.00    1.91    0.60    0.44    0.43      0      0      0       0      67 20.00
 2013 177    73    72   22.0      5   2.39   3204   3362   1271    760   6567  10896   2886   44.0  0.117   4330      6  0.861  0.908  0.000  0.000  0.000  0.000  0.000   1.95  29.36   0.40      0   4330     74.7   1.60   0.00   1.00    3.94    4.00    1.91    0.60    0.44    0.43      0      0      0       0      67 20.83
 2013 178    74    73   22.0      5   2.29   3204   3335   1338    756   6539  10936   2886   46.4  0.122   4397      6  0.871  0.915  0.000  0.000  0.000  0.000  0.000   1.94  30.44   0.40      0   4397     71.5   1.60   0.00   1.00    3.94    4.00    1.91    0.60    0.44    0.43      0      0      0       0      67 21.43
 2013 179    75    74   22.0      5   2.19   3204   3292   1426    752   6496  10980   2886   49.4  0.130   4484      6  0.862  0.908  0.000  0.000  0.000  0.000  0.000   1.93  31.79   0.41      0   4484     68.4   1.60   0.00   1.00    3.94    4.00    1.91    0.60    0.44    0.43      0      0      0       0      67 19.90
 2013 180    76    75   22.0      5   2.17   3204   3353   1564    779   6557  11180   2886   54.2  0.140   4623      6  0.238  0.493  0.000  0.000  0.000  0.000  0.000   1.87  33.84   0.41      0   4623     67.6   1.60   0.00   1.00    3.92    3.98    2.08    0.64    0.49    0.48      0      0      0       0      67 20.20
 2013 181    77    76   22.0      5   2.08   3204   3288   1668    775   6493  11220   2886   57.8  0.149   4727      6  0.809  0.873  0.000  0.000  0.000  0.000  0.000   1.86  35.30   0.42      0   4727     64.9   1.60   0.00   1.00    3.92    3.98    2.08    0.64    0.49    0.48      0      0      0       0      67 18.00
 2013 182    78    77   22.0      5   2.08   3204   3325   1856    790   6530  11445   2886   64.3  0.162   4915      6  0.000  0.000  0.000  0.000  0.000  0.000  0.000   1.80  37.76   0.43      0   4915     64.9   1.60   0.00   1.00    3.98    4.00    2.14    0.64    0.49    0.47      0      0      0       0      67 18.20
 2013 183    79    78   22.0      5   2.08   3204   3407   2044    826   6611  11713   2886   70.8  0.174   5102      6  0.000  0.000  0.000  0.000  0.000  0.000  0.000   1.73  40.05   0.44      0   5102     64.9   1.60   0.00   1.00    4.00    4.00    2.31    0.65    0.48    0.47      0      0      0       0      67 17.55
 2013 184    80    79   22.0      5   2.08   3204   3481   2231    860   6686  11976   2886   77.3  0.186   5290      6  0.000  0.000  0.000  0.000  0.000  0.000  0.000   1.66  42.18   0.44      0   5290     64.9   1.60   0.00   1.00    4.00    4.00    2.45    0.65    0.48    0.47      0      0      0       0      67 18.95
 2013 185    81    80   22.0      5   2.08   3204   3539   2419    884   6744  12221   2886   83.8  0.198   5477      6  0.000  0.000  0.000  0.000  0.000  0.000  0.000   1.60  44.16   0.45      0   5477     64.9   1.60   0.00   1.00    4.00    4.00    2.56    0.65    0.48    0.47      0      0      0       0      67 18.90
 2013 186    82    81   22.0      5   2.08   3204   3585   2606    903   6789  12454   2886   90.3  0.209   5665      6  0.000  0.000  0.000  0.000  0.000  0.000  0.000   1.54  46.01   0.45      0   5665     64.9   1.60   0.00   1.00    4.00    4.00    2.65    0.66    0.48    0.47      0      0      0       0      67 17.50
 2013 187    83    82   22.0      5   2.08   3204   3613   2777    943   6817  12653   2886   96.2  0.220   5836      6  0.000  0.000  0.000  0.000  0.000  0.000  0.000   1.49  47.59   0.46      0   5836     64.9   1.60   0.00   1.00    4.00    4.00    2.86    0.67    0.48    0.47      0      0      0       0      67 19.70
 2013 188    84    83   22.0      5   2.08   3204   3613   2965    979   6817  12841   2886  102.7  0.231   6024      6  0.000  0.000  0.000  0.000  0.000  0.000  0.000   1.44  49.22   0.47      0   6024     64.9   1.60   0.00   1.00    4.00    4.00    3.04    0.67    0.48    0.47      0      0      0       0      67 18.40
 2013 189    85    84   22.0      5   2.08   3204   3613   3150   1017   6817  13026   2886  109.2  0.242   6209      6  0.000  0.000  0.000  0.000  0.000  0.000  0.000   1.39  50.74   0.48      0   6209     64.9   1.60   0.00   1.00    4.00    4.00    3.23    0.68    0.48    0.47      0      0      0       0      67 19.10
 2013 190    86    85   22.0      5   2.08   3204   3613   3338   1042   6817  13214   2886  115.7  0.253   6397      6  0.000  0.000  0.000  0.000  0.000  0.000  0.000   1.34  52.18   0.48      0   6397     64.9   1.60   0.00   1.00    4.00    4.00    3.36    0.68    0.47    0.46      0      0      0       0      67 18.65
 2013 191    87    86   22.0      5   2.08   3204   3613   3525   1046   6817  13401   2886  122.2  0.263   6584      6  0.000  0.000  0.000  0.000  0.000  0.000  0.000   1.30  53.54   0.49      0   6584     64.9   1.60   0.00   1.00    3.99    4.00    3.39    0.68    0.47    0.46      0      0      0       0      67 17.65
 2013 192    88    87   22.0      5   2.08   3204   3613   3713   1074   6817  13589   2886  128.7  0.273   6772      6  0.000  0.202  0.000  0.000  0.000  0.000  0.000   1.25  54.83   0.50      0   6772     64.9   1.60   0.00   1.00    3.97    4.00    3.56    0.69    0.47    0.46      0      0      0       0      67 18.50
 2013 193    89    88   22.0      5   2.05   3204   3613   3866   1086   6817  13741   2886  134.0  0.281   6924      6  0.311  0.541  0.000  0.000  0.000  0.000  0.000   1.21  55.83   0.50      0   6924     63.8   1.60   0.00   1.00    3.95    4.00    3.63    0.69    0.47    0.46      0      0      0       0      67 19.15
 2013 194    90    89   22.0      5   1.99   3204   3613   3994   1086   6817  13870   2886  138.4  0.288   7053      6  0.514  0.676  0.000  0.000  0.000  0.000  0.000   1.17  56.63   0.51      0   7053     62.2   1.60   0.00   1.00    3.93    4.00    3.65    0.69    0.47    0.46      0      0      0       0      67 19.35
 2013 195    91    90   22.0      5   1.93   3204   3613   4093   1085   6817  13969   2886  141.8  0.293   7152      6  0.667  0.779  0.000  0.000  0.000  0.000  0.000   1.09  57.23   0.51      0   7152     60.1   1.60   0.00   1.00    3.91    4.00    3.67    0.68    0.46    0.45      0      0      0       0      73 20.33
 2013 196    92    91   22.0      5   1.88   3204   3579   4227   1080   6783  14069   2886  146.5  0.300   7286      6  0.519  0.680  0.000  0.000  0.000  0.000  0.000   1.06  58.02   0.52      0   7286     58.6   1.60   0.00   1.00    3.91    4.00    3.67    0.68    0.46    0.45      0      0      0       0      73 18.95
 2013 197    93    92   22.0      5   1.81   3204   3547   4344   1074   6752  14155   2886  150.5  0.307   7403      6  0.661  0.775  0.000  0.000  0.000  0.000  0.000   1.04  58.68   0.52      0   7403     56.6   1.60   0.00   1.00    3.91    4.00    3.67    0.68    0.46    0.45      0      0      0       0      78 19.15
 2013 198    94    93   22.0      5   1.74   3204   3528   4438   1069   6732  14228   2886  153.8  0.312   7496      6  0.773  0.849  0.000  0.000  0.000  0.000  0.000   1.03  59.20   0.53      0   7496     54.4   1.60   0.00   1.00    3.91    4.00    3.67    0.68    0.46    0.45      0      0      0       0      83 19.99
 2013 199    95    94   22.0      5   1.74   3204   3528   4438   1069   6732  14228   2886  153.8  0.312   7496      6  0.728  0.819  0.000  0.000  0.000  0.000  0.000   1.03  59.20   0.53      0   7496     54.4   1.60   0.00   1.00    3.91    4.00    3.67    0.68    0.46    0.45      0      0      0       0      83 18.70
 2013 200    96    95   22.0      5   1.74   3204   3528   4438   1069   6732  14228   2886  153.8  0.312   7496      6  0.598  0.732  0.000  0.000  0.000  0.000  0.000   1.03  59.20   0.53      0   7496     54.4   1.60   0.00   1.00    3.91    4.00    3.67    0.68    0.46    0.45      0      0      0       0      83 18.00
 2013 201    97    96   22.0      5   1.74   3204   3528   4438   1069   6732  14228   2886  153.8  0.312   7496      6  0.752  0.835  0.000  0.000  0.000  0.000  0.000   1.03  59.20   0.53      0   7496     54.4   1.60   0.00   1.00    3.91    4.00    3.67    0.68    0.46    0.45      0      0      0       0      83 19.25
 2013 202    98    97   22.0      5   1.74   3204   3528   4438   1069   6732  14228   2886  153.8  0.312   7496      6  0.000  0.835  0.000  0.000  0.000  0.000  0.000   1.03  59.20   0.53      0   7496     54.4   1.60   0.00   1.00    3.91    4.00    3.67    0.68    0.46    0.45      0      0      0       0      83  0.00
 2013 203    99    98   22.0      5   1.74   3204   3528   4438   1069   6732  14228   2886  153.8  0.312   7496      6  0.000  0.835  0.000  0.000  0.000  0.000  0.000   1.03  59.20   0.53      0   7496     54.4   1.60   0.00   1.00    3.91    4.00    3.67    0.68    0.46    0.45      0      0      0       0      83 20.67

*DSSAT Cropping System Model Ver. 4.6.1.000 -release      AUG 23, 2017; 14:09:34
                                                                                
*RUN   2        : P2                        MZCER046 0\000000    2              
 MODEL          : MZCER046 - Maize                                              
 EXPERIMENT     : 0\000000 BN Calibracion Cerete 2013                           
 DATA PATH      : C:\L\0\00000                                                  
 TREATMENT  2   : P2                        MZCER046                            
  
!                                                                                                                                                                                                                                      Root Dens. (cm/cm3) by soil depth (cm):
!                                                                                                                                                                                                                                      0-5    5-15   15-30   30-53   53-77  77-100
@YEAR DOY   DAS   DAP   L#SD   GSTD   LAID   LWAD   SWAD   GWAD   RWAD   VWAD   CWAD   G#AD   GWGD   HIAD   PWAD   P#AD   WSPD   WSGD   NSTD   EWSD  PST1A  PST2A   KSTD   LN%D   SH%D   HIPD   PWDD   PWTD     SLAD   CHTD   CWID   RDPD    RL1D    RL2D    RL3D    RL4D    RL5D    RL6D   CDAD   LDAD   SDAD   SNW0C   SNW1C  DTTD
 2013 119    15     0    0.0      0   0.00      0      0      0      0      0      0      0    0.0  0.000      0      0  0.000  0.000  0.000  0.000  0.000  0.000  0.000   0.00   0.00   0.00      0      0      0.0   0.00   0.00   0.05    0.00    0.00    0.00    0.00    0.00    0.00      0      0      0       0       0 18.72
 2013 120    16     1    0.0      0   0.00      0      0      0      0      0      0      0    0.0  0.000      0      0  0.000  0.000  0.000  0.000  0.000  0.000  0.000   0.00   0.00   0.00      0      0      0.0   0.00   0.00   0.08    0.00    0.00    0.00    0.00    0.00    0.00      0      0      0       0       0 21.05
 2013 121    17     2    0.0      0   0.00      0      0      0      0      0      0      0    0.0  0.000      0      0  0.000  0.000  0.000  0.000  0.000  0.000  0.000   0.00   0.00   0.00      0      0      0.0   0.00   0.00   0.11    0.00    0.00    0.00    0.00    0.00    0.00      0      0      0       0       0 18.42
 2013 122    18     3    0.0      0   0.00      0      0      0      0      0      0      0    0.0  0.000      0      0  0.000  0.000  0.000  0.000  0.000  0.000  0.000   0.00   0.00   0.00      0      0      0.0   0.00   0.00   0.14    0.00    0.00    0.00    0.00    0.00    0.00      0      0      0       0       0 21.54
 2013 123    19     4    0.0      0   0.00      0      0      0      0      0      0      0    0.0  0.000      0      0  0.000  0.000  0.000  0.000  0.000  0.000  0.000   0.00   0.00   0.00      0      0      0.0   0.00   0.00   0.17    0.00    0.00    0.00    0.00    0.00    0.00      0      0      0       0       0 17.34
 2013 124    20     5    2.0      1   0.00     12     12      0     12     25     25      0    0.0  0.000      0      0  0.000  0.000  0.012  0.000  0.000  0.000  0.000   4.40   0.00   0.00      0      0     38.5   0.00   0.00   0.19    0.25    0.12    0.01    0.00    0.00    0.00      0      0      0       0       0 20.68
 2013 125    21     6    2.0      1   0.01     12     12      0     13     25     25      0    0.0  0.000      0      0  0.000  0.000  0.010  0.000  0.000  0.000  0.000   4.40   0.00   0.00      0      0     71.9   0.00   0.00   0.21    0.25    0.13    0.01    0.00    0.00    0.00      0      0      0       0       0 17.55
 2013 126    22     7    3.0      1   0.01     12     12      0     14     25     25      0    0.0  0.000      0      0  0.000  0.000  0.000  0.000  0.000  0.000  0.000   4.40   0.00   0.00      0      0    116.3   0.01   0.00   0.23    0.26    0.13    0.01    0.00    0.00    0.00      0      0      0       0       0 20.01
 2013 127    23     8    3.0      1   0.02     12     12      0     14     25     25      0    0.0  0.000      0      0  0.000  0.000  0.000  0.000  0.000  0.000  0.000   4.40   0.00   0.00      0      0    153.8   0.01   0.00   0.24    0.26    0.14    0.02    0.00    0.00    0.00      0      0      0       0       0 15.70
 2013 128    24     9    4.0      1   0.04     12     12      0     16     25     25      0    0.0  0.000      0      0  0.000  0.000  0.000  0.000  0.000  0.000  0.000   4.40   0.00   0.00      0      0    324.6   0.02   0.00   0.26    0.28    0.15    0.03    0.00    0.00    0.00      0      0      0       0       0 19.24
 2013 129    25    10    5.0      1   0.06     21     12      0     17     33     33      0    0.0  0.000      0      0  0.000  0.000  0.000  0.000  0.000  0.000  0.000   3.29   0.00   0.00      0      0    309.4   0.03   0.00   0.28    0.29    0.16    0.03    0.00    0.00    0.00      0      0      0       0       0 18.75
 2013 130    26    11    5.0      1   0.10     34     12      0     19     46     46      0    0.0  0.000      0      0  0.000  0.000  0.000  0.000  0.000  0.000  0.000   2.94   0.00   0.00      0      0    280.0   0.05   0.00   0.30    0.31    0.17    0.04    0.00    0.00    0.00      0      0      0       0       0 20.19
 2013 131    27    12    6.0      1   0.13     51     12      0     22     63     63      0    0.0  0.000      0      0  0.000  0.000  0.000  0.000  0.000  0.000  0.000   2.96   0.00   0.00      0      0    258.1   0.07   0.00   0.32    0.31    0.18    0.06    0.00    0.00    0.00      0      0      0       0       0 20.27
 2013 132    28    13    6.0      1   0.17     71     12      0     27     84     84      0    0.0  0.000      0      0  0.000  0.000  0.000  0.000  0.000  0.000  0.000   2.97   0.00   0.00      0      0    240.6   0.09   0.00   0.33    0.33    0.21    0.10    0.00    0.00    0.00      0      0      0       0       0 20.59
 2013 133    29    14    7.0      2   0.22     91     12      0     32    103    103      0    0.0  0.000      0      0  0.000  0.000  0.000  0.000  0.000  0.000  0.000   3.14   0.00   0.00      0      0    244.3   0.12   0.00   0.34    0.35    0.24    0.13    0.00    0.00    0.00      0      0      0       0       0 19.18
 2013 134    30    15    7.0      2   0.29    124     12      0     38    137    137      0    0.0  0.000      0      0  0.000  0.000  0.003  0.000  0.000  0.000  0.000   2.94   0.00   0.00      0      0    229.1   0.15   0.00   0.35    0.38    0.28    0.18    0.00    0.00    0.00      0      0      0       0       1 20.63
 2013 135    31    16    8.0      2   0.34    154     12      0     43    167    167      0    0.0  0.000      0      0  0.000  0.000  0.000  0.000  0.000  0.000  0.000   3.16   0.00   0.00      0      0    219.1   0.18   0.00   0.37    0.39    0.30    0.22    0.01    0.00    0.00      0      0      0       0       1 17.81
 2013 136    32    17    8.0      2   0.42    201     12      0     56    213    213      0    0.0  0.000      0      0  0.000  0.000  0.000  0.000  0.000  0.000  0.000   2.97   0.00   0.00      0      0    207.5   0.22   0.00   0.39    0.43    0.35    0.32    0.02    0.00    0.00      0      0      0       0       1 20.47
 2013 137    33    18    8.0      2   0.47    231     12      0     61    243    243      0    0.0  0.000      0      0  0.000  0.000  0.000  0.000  0.000  0.000  0.000   3.78   0.00   0.00      0      0    201.5   0.25   0.00   0.41    0.44    0.37    0.36    0.02    0.00    0.00      0      0      0       0       1 17.19
 2013 138    34    19    9.0      2   0.56    292     12      0     91    304    304      0    0.0  0.000      0      0  0.000  0.000  0.000  0.000  0.000  0.000  0.000   3.73   0.00   0.00      0      0    191.9   0.30   0.00   0.43    0.48    0.47    0.59    0.08    0.00    0.00      0      0      0       0       2 20.20
 2013 139    35    20    9.0      2   0.64    342     12      0    100    355    355      0    0.0  0.000      0      0  0.000  0.000  0.000  0.000  0.000  0.000  0.000   3.69   0.00   0.00      0      0    185.6   0.34   0.00   0.45    0.50    0.49    0.64    0.10    0.00    0.00      0      0      0       0       2 17.62
 2013 140    36    21   10.0      3   0.74    417     13      0    139    430    430      0    0.0  0.000      0      0  0.000  0.000  0.000  0.000  0.000  0.000  0.000   3.61   0.00   0.00      0      0    177.9   0.40   0.00   0.47    0.59    0.56    0.89    0.23    0.00    0.00      0      0      0       0       3 19.27
 2013 141    37    22   10.0      3   0.85    494     14      0    148    508    508      0    0.0  0.000      0      0  0.000  0.000  0.000  0.000  0.000  0.000  0.000   3.54   0.00   0.00      0      0    172.5   0.46   0.00   0.49    0.59    0.56    0.94    0.27    0.00    0.00      0      0      0       0       3 17.57
 2013 142    38    23   11.0      3   0.99    592     17      0    174    610    610      0    0.0  0.000      0      0  0.000  0.000  0.000  0.000  0.000  0.000  0.000   3.48   0.00   0.00      0      0    166.9   0.53   0.00   0.51    0.61    0.58    1.02    0.42    0.00    0.00      0      0      0       0       4 19.69
 2013 143    39    24   11.0      3   1.11    683     23      0    199    706    706      0    0.0  0.000      0      0  0.000  0.000  0.000  0.000  0.000  0.000  0.000   3.27   0.00   0.00      0      0    162.5   0.60   0.00   0.53    0.64    0.61    1.05    0.60    0.00    0.00      0      0      0       0       5 16.45
 2013 144    40    25   12.0      3   1.27    808     35      0    210    843    843      0    0.0  0.000      0      0  0.000  0.000  0.000  0.000  0.000  0.000  0.000   3.35   0.00   0.00      0      0    157.5   0.69   0.00   0.54    1.00    0.61    1.05    0.61    0.00    0.00      0      0      0       0       6 18.00
 2013 145    41    26   12.0      3   1.44    945     54      0    252    998    998      0    0.0  0.000      0      0  0.000  0.000  0.000  0.000  0.000  0.000  0.000   3.31   0.00   0.00      0      0    152.9   0.78   0.00   0.56    2.36    0.62    1.05    0.65    0.02    0.00      0      0      0       0       7 18.90
 2013 146    42    27   13.0      3   1.60   1069     76      0    262   1146   1146      0    0.0  0.000      0      0  0.000  0.000  0.000  0.000  0.000  0.000  0.000   3.26   0.00   0.00      0      0    149.3   0.86   0.00   0.58    2.61    0.67    1.05    0.65    0.02    0.00      0      0      0       0       8 16.75
 2013 147    43    28   13.0      3   1.77   1216    112      0    298   1328   1328      0    0.0  0.000      0      0  0.000  0.000  0.000  0.000  0.000  0.000  0.000   3.21   0.00   0.00      0      0    145.7   0.95   0.00   0.60    3.25    1.00    1.05    0.66    0.04    0.00      0      0      0       0       9 19.20
 2013 148    44    29   14.0      3   1.95   1366    158      0    318   1524   1524      0    0.0  0.000      0      0  0.000  0.000  0.000  0.000  0.000  0.000  0.000   3.15   0.00   0.00      0      0    142.5   1.05   0.00   0.62    3.50    1.19    1.09    0.66    0.04    0.00      0      0      0       0      11 19.15
 2013 149    45    30   14.0      3   2.11   1510    213      0    366   1723   1723      0    0.0  0.000      0      0  0.000  0.000  0.000  0.000  0.000  0.000  0.000   3.10   0.00   0.00      0      0    139.8   1.14   0.00   0.64    4.00    1.61    1.21    0.66    0.06    0.00      0      0      0       0      13 18.00
 2013 150    46    31   14.0      3   2.28   1659    282      0    383   1942   1942      0    0.0  0.000      0      0  0.000  0.000  0.000  0.000  0.000  0.000  0.000   3.05   0.00   0.00      0      0    137.2   1.23   0.00   0.66    4.00    1.75    1.25    0.67    0.07    0.00      0      0      0       0      14 18.30
 2013 151    47    32   15.0      3   2.45   1814    368      0    400   2182   2182      0    0.0  0.000      0      0  0.000  0.000  0.000  0.000  0.000  0.000  0.000   3.00   0.00   0.00      0      0    134.9   1.32   0.00   0.68    4.00    1.89    1.30    0.67    0.08    0.00      0      0      0       0      16 18.60
 2013 152    48    33   15.0      3   2.62   1973    471      0    438   2444   2444      0    0.0  0.000      0      0  0.000  0.000  0.000  0.000  0.000  0.000  0.000   2.95   0.00   0.00      0      0    132.7   1.41   0.00   0.70    4.00    2.21    1.39    0.67    0.10    0.00      0      0      0       0      18 18.75
 2013 153    49    34   16.0      3   2.78   2130    589      0    476   2719   2719      0    0.0  0.000      0      0  0.000  0.000  0.000  0.000  0.000  0.000  0.000   2.90   0.00   0.00      0      0    130.8   1.50   0.00   0.72    4.00    2.53    1.47    0.68    0.14    0.00      0      0      0       0      20 18.20
 2013 154    50    35   16.0      3   2.93   2269    709      0    488   2978   2978      0    0.0  0.000      0      0  0.000  0.000  0.000  0.000  0.000  0.000  0.000   2.84   0.00   0.00      0      0    129.2   1.58   0.00   0.74    4.00    2.63    1.47    0.68    0.16    0.00      0      0      0       0      23 18.05
 2013 155    51    36   17.0      3   3.09   2424    861      0    503   3285   3285      0    0.0  0.000      0      0  0.000  0.000  0.000  0.000  0.000  0.000  0.000   2.69   0.00   0.00      0      0    127.5   1.60   0.00   0.76    4.00    2.73    1.48    0.68    0.20    0.00      0      0      0       0      25 18.30
 2013 156    52    37   17.0      3   3.28   2606   1030      0    520   3636   3640      0    0.0  0.000      4      0  0.000  0.000  0.000  0.000  0.000  0.000  0.000   2.51   0.00   0.00      0      4    125.7   1.60   0.00   0.77    4.00    2.74    1.50    0.68    0.30    0.00      0      0      0       0      28 18.50
 2013 157    53    38   18.0      3   3.39   2716   1182      0    532   3898   3906      0    0.0  0.000      8      0  0.000  0.000  0.000  0.000  0.000  0.000  0.000   2.38   0.00   0.00      0      8    124.7   1.60   0.00   0.79    4.00    2.75    1.51    0.69    0.36    0.02      0      0      0       0      30 17.90
 2013 158    54    39   18.0      3   3.50   2834   1380      0    547   4214   4232      0    0.0  0.000     18      0  0.000  0.000  0.022  0.000  0.000  0.000  0.000   2.24   0.00   0.00      0     18    123.3   1.60   0.00   0.81    4.00    2.77    1.53    0.69    0.41    0.07      0      0      0       0      33 18.05
 2013 159    55    40   19.0      3   3.59   2944   1587      0    563   4530   4564      0    0.0  0.000     34      0  0.000  0.081  0.038  0.000  0.000  0.000  0.000   2.13   0.00   0.01      0     34    121.8   1.60   0.00   0.83    4.00    2.78    1.55    0.69    0.45    0.14      0      0      0       0      36 17.95
 2013 160    56    41   19.0      3   3.65   3039   1781      0    587   4820   4878      0    0.0  0.000     58      0  0.000  0.204  0.058  0.000  0.000  0.000  0.000   2.04   0.00   0.01      0     58    120.2   1.60   0.00   0.85    3.98    2.81    1.59    0.70    0.47    0.28      0      0      0       0      39 19.00
 2013 161    57    42   20.0      3   3.69   3110   1937      0    598   5047   5125      0    0.0  0.000     78      0  0.000  0.125  0.073  0.000  0.000  0.000  0.000   1.98   0.00   0.02      0     78    118.6   1.60   0.00   0.87    3.96    2.82    1.60    0.70    0.47    0.35      0      0      0       0      42 18.50
 2013 162    58    43   20.0      3   3.72   3178   2091      0    609   5269   5378      0    0.0  0.000    109      0  0.000  0.162  0.084  0.000  0.000  0.000  0.000   1.93   0.00   0.02      0    109    116.9   1.60   0.00   0.89    3.94    2.83    1.62    0.71    0.48    0.43      0      0      0       0      45 18.25
 2013 163    59    44   20.0      3   3.74   3243   2221      0    652   5464   5631      0    0.0  0.000    167      0  0.000  0.299  0.089  0.000  0.000  0.000  0.000   1.89   0.00   0.03      0    167    115.2   1.60   0.00   0.91    4.00    2.89    1.69    0.72    0.50    0.68      0      0      0       0      48 18.60
 2013 164    60    45   21.0      3   3.76   3314   2356      0    687   5671   5921      0    0.0  0.000    250      0  0.000  0.000  0.093  0.000  0.000  0.000  0.000   1.87   0.00   0.04      0    250    113.5   1.60   0.00   0.93    4.00    2.91    1.71    0.73    0.50    0.77      0      0      0       0      51 19.80
 2013 165    61    46   21.0      3   3.72   3350   2395      0    732   5745   6068      0    0.0  0.000    322      0  0.400  0.601  0.090  0.000  0.000  0.000  0.000   1.86   0.00   0.05      0    322    111.1   1.60   0.00   0.95    3.98    2.98    1.79    0.75    0.52    1.03      0      0      0       0      54 19.25
 2013 166    62    47   21.0      3   3.67   3383   2423      0    759   5806   6201      0    0.0  0.000    395      0  0.461  0.641  0.095  0.000  0.000  0.000  0.000   1.85   0.00   0.06      0    395    108.4   1.60   0.00   0.97    3.96    3.03    1.84    0.76    0.54    1.18      0      0      0       0      58 19.40
 2013 167    63    48   21.0      3   3.58   3407   2427      0    784   5834   6300      0    0.0  0.000    466      0  0.616  0.745  0.091  0.000  0.000  0.000  0.000   1.85   0.00   0.07      0    466    104.9   1.60   0.00   0.99    3.94    3.07    1.89    0.77    0.55    1.32      0      0      0       0      62 20.45
 2013 168    64    49   21.0      3   3.48   3430   2428      0    799   5859   6396      0    0.0  0.000    537      0  0.630  0.754  0.086  0.000  0.000  0.000  0.000   1.85   0.00   0.08      0    537    101.6   1.60   0.00   1.00    3.92    3.10    1.92    0.78    0.56    1.41      0      0      0       0      66 20.40
 2013 169    65    50   21.0      4   3.36   3394   2521      0    800   5915   6467      0    0.0  0.000    551      0  0.695  0.797  0.078  0.000  0.000  0.000  0.000   1.84   0.00   0.09      0    551     99.1   1.60   0.00   1.00    3.90    3.09    1.92    0.78    0.56    1.42      0      0      0       0      70 19.95
 2013 170    66    51   21.0      4   3.25   3354   2598      0    800   5953   6519      0    0.0  0.000    566      0  0.652  0.769  0.069  0.000  0.000  0.000  0.000   1.84   0.00   0.09      0    566     97.0   1.60   0.00   1.00    3.88    3.09    1.93    0.78    0.56    1.43      0      0      0       0      74 19.65
 2013 171    67    52   21.0      4   3.13   3311   2670      0    799   5981   6557      0    0.0  0.000    576      0  0.766  0.845  0.063  0.000  0.000  0.000  0.000   1.84   0.00   0.09      0    576     94.5   1.60   0.00   1.00    3.86    3.07    1.93    0.78    0.56    1.44      0      0      0       0      78 19.90
 2013 172    68    53   21.0      4   3.00   3265   2731      0    798   5996   6578      0    0.0  0.000    582      0  0.814  0.877  0.055  0.000  0.000  0.000  0.000   1.84   0.00   0.09      0    582     91.9   1.60   0.00   1.00    3.84    3.06    1.93    0.77    0.56    1.44      0      0      0       0      82 19.25
 2013 173    69    54   21.0      4   2.88   3215   2784      0    797   6000   6589      0    0.0  0.000    589      0  0.797  0.865  0.047  0.000  0.000  0.000  0.000   1.84   0.00   0.09      0    589     89.6   1.60   0.00   1.00    3.82    3.04    1.93    0.77    0.56    1.44      0      0      0       0      86 19.80
 2013 174    70    55   21.0      4   2.77   3162   2833      0    795   5995   6591      0    0.0  0.000    596      0  0.793  0.862  0.037  0.000  0.000  0.000  0.000   1.84   0.00   0.09      0    596     87.5   1.60   0.00   1.00    3.80    3.02    1.93    0.77    0.56    1.44      0      0      0       0      90 20.05
 2013 175    71    56   21.0      4   2.65   3106   2879      0    793   5984   6585      0    0.0  0.000    601      0  0.822  0.882  0.026  0.000  0.000  0.000  0.000   1.85   0.00   0.09      0    601     85.5   1.60   0.00   1.00    3.78    3.01    1.93    0.77    0.56    1.44      0      0      0       0      94 19.90
 2013 176    72    57   21.0      4   2.54   3046   2922      0    791   5967   6571      0    0.0  0.000    604      0  0.871  0.914  0.014  0.000  0.000  0.000  0.000   1.86   0.00   0.09      0    604     83.3   1.60   0.00   1.00    3.76    2.99    1.93    0.77    0.56    1.44      0      0      0       0      98 20.00
 2013 177    73    58   21.0      5   2.43   3046   2922     22    793   5967   6593    849    2.6  0.003    626      6  0.863  0.909  0.000  0.000  0.000  0.000  0.000   1.85   3.53   0.09      0    626     79.7   1.60   0.00   1.00    3.74    2.98    1.96    0.78    0.56    1.44      0      0      0       0     102 20.83
 2013 178    74    59   21.0      5   2.32   3046   2922     42    795   5967   6613    849    5.0  0.006    646      6  0.861  0.908  0.000  0.000  0.000  0.000  0.000   1.88   6.52   0.10      0    646     76.3   1.60   0.00   1.00    3.88    2.96    1.96    0.77    0.56    1.43      0      0      0       0     105 21.43
 2013 179    75    60   21.0      5   2.22   3046   2922     68    796   5967   6639    849    8.0  0.010    672      6  0.857  0.905  0.000  0.000  0.000  0.000  0.000   1.87  10.12   0.10      0    672     73.0   1.60   0.00   1.00    4.00    2.95    1.95    0.77    0.56    1.43      0      0      0       0     109 19.90
 2013 180    76    61   21.0      5   2.19   3046   2922    107    841   5967   6678    849   12.5  0.016    711      6  0.325  0.550  0.000  0.000  0.000  0.000  0.000   1.86  14.99   0.11      0    711     71.9   1.60   0.00   1.00    3.98    2.93    2.22    0.84    0.63    1.50      0      0      0       0     109 20.20
 2013 181    77    62   21.0      5   2.10   3046   2922    138    840   5967   6709    849   16.2  0.021    742      6  0.797  0.865  0.000  0.000  0.000  0.000  0.000   1.85  18.55   0.11      0    742     69.0   1.60   0.00   1.00    3.99    2.95    2.21    0.84    0.63    1.49      0      0      0       0     109 18.00
 2013 182    78    63   21.0      5   2.10   3046   2922    193    887   5967   6764    849   22.7  0.029    797      6  0.000  0.000  0.000  0.000  0.000  0.000  0.000   1.83  24.19   0.12      0    797     69.0   1.60   0.00   1.00    4.00    3.55    2.29    0.83    0.63    1.48      0      0      0       0     109 18.20
 2013 183    79    64   21.0      5   2.10   3046   2922    248    957   5967   6819    849   29.2  0.036    852      6  0.000  0.000  0.000  0.000  0.000  0.000  0.000   1.82  29.11   0.12      0    852     69.0   1.60   0.00   1.00    4.00    4.00    2.45    0.83    0.63    1.48      0      0      0       0     109 17.55
 2013 184    80    65   21.0      5   2.10   3046   2922    303   1023   5967   6875    849   35.7  0.044    907      6  0.000  0.000  0.000  0.000  0.000  0.000  0.000   1.80  33.42   0.13      0    907     69.0   1.60   0.00   1.00    4.00    4.00    2.61    0.83    0.63    1.47      0      0      0       0     109 18.95
 2013 185    81    66   21.0      5   2.10   3046   2922    358   1081   5967   6930    849   42.2  0.052    963      6  0.000  0.000  0.000  0.000  0.000  0.000  0.000   1.79  37.24   0.14      0    963     69.0   1.60   0.00   1.00    4.00    4.00    2.75    0.83    0.62    1.46      0      0      0       0     109 18.90
 2013 186    82    67   21.0      5   2.10   3046   2922    414   1132   5967   6985    849   48.7  0.059   1018      6  0.000  0.000  0.000  0.000  0.000  0.000  0.000   1.77  40.65   0.15      0   1018     69.0   1.60   0.00   1.00    4.00    4.00    2.93    0.82    0.62    1.46      0      0      0       0     109 17.50
 2013 187    83    68   21.0      5   2.10   3046   2922    464   1201   5967   7035    849   54.6  0.066   1068      6  0.000  0.000  0.000  0.000  0.000  0.000  0.000   1.76  43.45   0.15      0   1068     69.0   1.60   0.00   1.00    4.00    4.00    3.21    0.82    0.62    1.45      0      0      0       0     109 19.70
 2013 188    84    69   21.0      5   2.10   3046   2922    519   1270   5967   7091    849   61.1  0.073   1123      6  0.000  0.000  0.000  0.000  0.000  0.000  0.000   1.74  46.23   0.16      0   1123     69.0   1.60   0.00   1.00    4.00    4.00    3.49    0.82    0.62    1.45      0      0      0       0     109 18.40
 2013 189    85    70   21.0      5   2.10   3046   2922    574   1339   5967   7145    849   67.5  0.080   1178      6  0.000  0.000  0.000  0.000  0.000  0.000  0.000   1.72  48.71   0.16      0   1178     69.0   1.60   0.00   1.00    4.00    4.00    3.77    0.81    0.62    1.44      0      0      0       0     109 19.10
 2013 190    86    71   21.0      5   2.10   3046   2922    629   1397   5967   7200    849   74.0  0.087   1233      6  0.000  0.000  0.000  0.000  0.000  0.000  0.000   1.71  51.01   0.17      0   1233     69.0   1.60   0.00   1.00    4.00    4.00    4.00    0.81    0.61    1.43      0      0      0       0     109 18.65
 2013 191    87    72   21.0      5   2.10   3046   2922    684   1432   5967   7256    849   80.5  0.094   1288      6  0.000  0.000  0.000  0.000  0.000  0.000  0.000   1.69  53.11   0.18      0   1288     69.0   1.60   0.00   1.00    4.00    4.00    4.00    0.81    0.61    1.43      0      0      0       0     109 17.65
 2013 192    88    73   21.0      5   2.10   3046   2922    739   1492   5967   7311    849   87.0  0.101   1343      6  0.000  0.204  0.000  0.000  0.000  0.000  0.000   1.68  55.04   0.18      0   1343     69.0   1.60   0.00   1.00    3.98    4.00    4.00    0.81    0.61    1.42      0      0      0       0     109 18.50
 2013 193    89    74   21.0      5   2.07   3046   2922    784   1527   5967   7355    849   92.3  0.107   1388      6  0.327  0.552  0.000  0.000  0.000  0.000  0.000   1.66  56.48   0.19      0   1388     67.9   1.60   0.00   1.00    3.96    4.00    4.00    0.80    0.61    1.42      0      0      0       0     109 19.15
 2013 194    90    75   21.0      5   2.01   3046   2922    821   1547   5967   7393    849   96.7  0.111   1425      6  0.525  0.684  0.000  0.000  0.000  0.000  0.000   1.65  57.62   0.19      0   1425     66.1   1.60   0.00   1.00    3.94    4.00    4.00    0.80    0.61    1.41      0      0      0       0     109 19.35
 2013 195    91    76   21.0      5   1.94   3046   2922    850   1561   5967   7422    849  100.1  0.115   1454      6  0.673  0.783  0.000  0.000  0.000  0.000  0.000   1.64  58.47   0.20      0   1454     63.9   1.60   0.00   1.00    3.92    4.00    4.00    0.80    0.61    1.40      0      0      0       0     109 20.33
 2013 196    92    77   21.0      5   1.89   3046   2922    890   1569   5967   7461    849  104.7  0.119   1494      6  0.526  0.685  0.000  0.000  0.000  0.000  0.000   1.63  59.56   0.20      0   1494     62.2   1.60   0.00   1.00    3.90    4.00    4.00    0.80    0.60    1.40      0      0      0       0     109 18.95
 2013 197    93    78   21.0      5   1.83   3046   2922    924   1573   5967   7495    849  108.8  0.123   1528      6  0.666  0.778  0.000  0.000  0.000  0.000  0.000   1.62  60.47   0.20      0   1528     60.1   1.60   0.00   1.00    3.88    4.00    4.00    0.79    0.60    1.39      0      0      0       0     109 19.15
 2013 198    94    79   21.0      5   1.76   3046   2922    951   1577   5967   7523    849  112.0  0.126   1555      6  0.776  0.851  0.000  0.000  0.000  0.000  0.000   1.61  61.16   0.21      0   1555     57.8   1.60   0.00   1.00    3.86    4.00    4.00    0.79    0.60    1.39      0      0      0       0     109 19.99
 2013 199    95    80   21.0      5   1.70   3046   2922    984   1577   5967   7556    849  115.9  0.130   1588      6  0.732  0.822  0.000  0.000  0.000  0.000  0.000   1.60  61.97   0.21      0   1588     55.7   1.60   0.00   1.00    3.84    3.98    4.00    0.79    0.60    1.38      0      0      0       0     109 18.70
 2013 200    96    81   21.0      5   1.64   3046   2922   1021   1574   5967   7593    849  120.2  0.135   1626      6  0.598  0.732  0.000  0.000  0.000  0.000  0.000   1.59  62.84   0.21      0   1626     54.0   1.60   0.00   1.00    3.82    3.96    4.00    0.79    0.60    1.38      0      0      0       0     109 18.00
 2013 201    97    82   21.0      5   1.58   3046   2922   1053   1570   5967   7624    849  123.9  0.138   1657      6  0.749  0.833  0.000  0.000  0.000  0.000  0.000   1.58  63.54   0.22      0   1657     52.0   1.60   0.00   1.00    3.80    3.94    4.00    0.79    0.60    1.38      0      0      0       0     109 19.25
 2013 202    98    83   21.0      5   1.52   3046   2922   1076   1567   5967   7647    849  126.6  0.141   1680      6  0.853  0.903  0.000  0.000  0.000  0.000  0.000   1.57  64.04   0.22      0   1680     49.8   1.60   0.00   1.00    3.78    3.92    3.98    0.80    0.61    1.38      0      0      0       0     109 20.49
 2013 203    99    84   21.0      5   1.45   3046   2922   1097   1562   5967   7668    849  129.1  0.143   1701      6  0.895  0.931  0.000  0.000  0.000  0.000  0.000   1.56  64.49   0.22      0   1701     47.5   1.60   0.00   1.00    3.76    3.90    3.96    0.80    0.61    1.38      0      0      0       0     109 20.67
 2013 204   100    85   21.0      5   1.39   3046   2922   1126   1554   5967   7698    849  132.6  0.146   1730      6  0.854  0.903  0.000  0.000  0.000  0.000  0.000   1.55  65.09   0.22      0   1730     45.5   1.60   0.00   1.00    3.75    3.89    3.94    0.80    0.61    1.38      0      0      0       0     109 17.70
 2013 205   101    86   21.0      5   1.39   3046   2922   1176   1600   5967   7747    849  138.4  0.152   1780      6  0.000  0.000  0.000  0.000  0.000  0.000  0.000   1.54  66.06   0.23      0   1780     45.5   1.60   0.00   1.00    4.00    4.00    3.92    0.79    0.61    1.37      0      0      0       0     109 19.77
 2013 206   102    87   21.0      5   1.36   3046   2922   1219   1617   5967   7790    849  143.5  0.156   1823      6  0.384  0.590  0.000  0.000  0.000  0.000  0.000   1.53  66.87   0.23      0   1823     44.6   1.60   0.00   1.00    4.00    4.00    3.90    0.79    0.61    1.37      0      0      0       0     109 18.70
 2013 207   103    88   21.0      5   1.31   3046   2922   1249   1617   5967   7820    849  147.0  0.160   1853      6  0.727  0.818  0.000  0.000  0.000  0.000  0.000   1.52  67.40   0.24      0   1853     43.0   1.60   0.00   1.00    3.98    4.00    3.88    0.79    0.60    1.36      0      0      0       0     109 19.85
 2013 208   104    89   21.0      5   1.25   3046   2922   1272   1614   5967   7843    849  149.7  0.162   1876      6  0.838  0.892  0.000  0.000  0.000  0.000  0.000   1.51  67.80   0.24      0   1876     41.2   1.60   0.00   1.00    3.96    4.00    3.86    0.78    0.60    1.35      0      0      0       0     109 20.47
 2013 209   105    90   21.0      5   1.20   3046   2922   1295   1608   5967   7866    849  152.4  0.165   1899      6  0.854  0.903  0.000  0.000  0.000  0.000  0.000   1.50  68.19   0.24      0   1899     39.4   1.60   0.00   1.00    3.94    4.00    3.84    0.78    0.60    1.34      0      0      0       0     109 20.67
 2013 210   106    91   21.0      5   1.15   3046   2922   1320   1601   5967   7891    849  155.4  0.167   1924      6  0.892  0.928  0.000  0.000  0.000  0.000  0.000   1.49  68.60   0.24      0   1924     37.7   1.60   0.00   1.00    3.92    3.99    3.82    0.77    0.60    1.34      0      0      0       0     109 19.69
 2013 211   107    92   21.0      5   1.10   3046   2920   1347   1593   5966   7917    849  158.6  0.170   1951      6  0.868  0.912  0.000  0.000  0.000  0.000  0.000   1.49  69.04   0.25      0   1951     36.1   1.60   0.00   1.00    3.92    3.99    3.82    0.77    0.60    1.34      0      0      0       0     109 19.50
 2013 212   108    93   21.0      5   1.10   3046   2920   1347   1593   5966   7917    849  158.6  0.170   1951      6  0.887  0.925  0.000  0.000  0.000  0.000  0.000   1.49  69.04   0.25      0   1951     36.1   1.60   0.00   1.00    3.92    3.99    3.82    0.77    0.60    1.34      0      0      0       0     109 19.81
 2013 213   109    94   21.0      5   1.10   3046   2920   1347   1593   5966   7917    849  158.6  0.170   1951      6  0.906  0.938  0.000  0.000  0.000  0.000  0.000   1.49  69.04   0.25      0   1951     36.1   1.60   0.00   1.00    3.92    3.99    3.82    0.77    0.60    1.34      0      0      0       0     109 19.78
 2013 214   110    95   21.0      5   1.10   3046   2920   1347   1593   5966   7917    849  158.6  0.170   1951      6  0.000  0.938  0.000  0.000  0.000  0.000  0.000   1.49  69.04   0.25      0   1951     36.1   1.60   0.00   1.00    3.92    3.99    3.82    0.77    0.60    1.34      0      0      0       0     109  0.00
 2013 215   111    96   21.0      5   1.10   3046   2920   1347   1593   5966   7917    849  158.6  0.170   1951      6  0.000  0.938  0.000  0.000  0.000  0.000  0.000   1.49  69.04   0.25      0   1951     36.1   1.60   0.00   1.00    3.92    3.99    3.82    0.77    0.60    1.34      0      0      0       0     109 21.36

*DSSAT Cropping System Model Ver. 4.6.1.000 -release      AUG 23, 2017; 14:09:34
                                                                                
*RUN   3        : P3                        MZCER046 0\000000    3              
 MODEL          : MZCER046 - Maize                                              
 EXPERIMENT     : 0\000000 BN Calibracion Cerete 2013                           
 DATA PATH      : C:\L\0\00000                                                  
 TREATMENT  3   : P3                        MZCER046                            
  
!                                                                                                                                                                                                                                      Root Dens. (cm/cm3) by soil depth (cm):
!                                                                                                                                                                                                                                      0-5    5-15   15-30   30-53   53-77  77-100
@YEAR DOY   DAS   DAP   L#SD   GSTD   LAID   LWAD   SWAD   GWAD   RWAD   VWAD   CWAD   G#AD   GWGD   HIAD   PWAD   P#AD   WSPD   WSGD   NSTD   EWSD  PST1A  PST2A   KSTD   LN%D   SH%D   HIPD   PWDD   PWTD     SLAD   CHTD   CWID   RDPD    RL1D    RL2D    RL3D    RL4D    RL5D    RL6D   CDAD   LDAD   SDAD   SNW0C   SNW1C  DTTD
 2013 133    29     0    0.0      0   0.00      0      0      0      0      0      0      0    0.0  0.000      0      0  0.000  0.000  0.000  0.000  0.000  0.000  0.000   0.00   0.00   0.00      0      0      0.0   0.00   0.00   0.05    0.00    0.00    0.00    0.00    0.00    0.00      0      0      0       0       0 19.18
 2013 134    30     1    0.0      0   0.00      0      0      0      0      0      0      0    0.0  0.000      0      0  0.000  0.000  0.000  0.000  0.000  0.000  0.000   0.00   0.00   0.00      0      0      0.0   0.00   0.00   0.08    0.00    0.00    0.00    0.00    0.00    0.00      0      0      0       0       0 20.63
 2013 135    31     2    0.0      0   0.00      0      0      0      0      0      0      0    0.0  0.000      0      0  0.000  0.000  0.000  0.000  0.000  0.000  0.000   0.00   0.00   0.00      0      0      0.0   0.00   0.00   0.11    0.00    0.00    0.00    0.00    0.00    0.00      0      0      0       0       0 17.81
 2013 136    32     3    0.0      0   0.00      0      0      0      0      0      0      0    0.0  0.000      0      0  0.000  0.000  0.000  0.000  0.000  0.000  0.000   0.00   0.00   0.00      0      0      0.0   0.00   0.00   0.14    0.00    0.00    0.00    0.00    0.00    0.00      0      0      0       0       0 20.47
 2013 137    33     4    0.0      0   0.00      0      0      0      0      0      0      0    0.0  0.000      0      0  0.000  0.000  0.000  0.000  0.000  0.000  0.000   0.00   0.00   0.00      0      0      0.0   0.00   0.00   0.16    0.00    0.00    0.00    0.00    0.00    0.00      0      0      0       0       0 17.19
 2013 138    34     5    2.0      1   0.00     12     12      0     12     25     25      0    0.0  0.000      0      0  0.000  0.000  0.012  0.000  0.000  0.000  0.000   4.40   0.00   0.00      0      0     37.5   0.00   0.00   0.18    0.25    0.12    0.01    0.00    0.00    0.00      0      0      0       0       0 20.20
 2013 139    35     6    2.0      1   0.01     12     12      0     13     25     25      0    0.0  0.000      0      0  0.000  0.000  0.012  0.000  0.000  0.000  0.000   4.40   0.00   0.00      0      0     70.9   0.00   0.00   0.20    0.25    0.13    0.01    0.00    0.00    0.00      0      0      0       0       0 17.62
 2013 140    36     7    3.0      1   0.01     12     12      0     14     25     25      0    0.0  0.000      0      0  0.000  0.000  0.002  0.000  0.000  0.000  0.000   4.40   0.00   0.00      0      0    113.2   0.01   0.00   0.22    0.27    0.14    0.01    0.00    0.00    0.00      0      0      0       0       0 19.27
 2013 141    37     8    3.0      1   0.02     12     12      0     15     25     25      0    0.0  0.000      0      0  0.000  0.000  0.000  0.000  0.000  0.000  0.000   4.40   0.00   0.00      0      0    155.5   0.01   0.00   0.24    0.28    0.15    0.01    0.00    0.00    0.00      0      0      0       0       0 17.57
 2013 142    38     9    4.0      1   0.04     12     12      0     17     25     25      0    0.0  0.000      0      0  0.000  0.000  0.000  0.000  0.000  0.000  0.000   4.40   0.00   0.00      0      0    332.6   0.02   0.00   0.26    0.30    0.16    0.02    0.00    0.00    0.00      0      0      0       0       0 19.69
 2013 143    39    10    5.0      1   0.06     20     12      0     18     33     33      0    0.0  0.000      0      0  0.000  0.000  0.000  0.000  0.000  0.000  0.000   3.36   0.00   0.00      0      0    311.5   0.03   0.00   0.28    0.31    0.17    0.03    0.00    0.00    0.00      0      0      0       0       0 16.89
 2013 144    40    11    5.0      1   0.09     32     12      0     20     44     44      0    0.0  0.000      0      0  0.000  0.000  0.000  0.000  0.000  0.000  0.000   3.04   0.00   0.00      0      0    284.0   0.05   0.00   0.29    0.31    0.18    0.04    0.00    0.00    0.00      0      0      0       0       0 18.36
 2013 145    41    12    6.0      1   0.12     47     12      0     24     60     60      0    0.0  0.000      0      0  0.000  0.000  0.000  0.000  0.000  0.000  0.000   2.99   0.00   0.00      0      0    261.7   0.07   0.00   0.31    0.34    0.20    0.06    0.00    0.00    0.00      0      0      0       0       0 19.75
 2013 146    42    13    6.0      1   0.16     63     12      0     26     76     76      0    0.0  0.000      0      0  0.000  0.000  0.000  0.000  0.000  0.000  0.000   3.14   0.00   0.00      0      0    246.5   0.08   0.00   0.32    0.35    0.22    0.08    0.00    0.00    0.00      0      0      0       0       0 17.10
 2013 147    43    14    6.0      1   0.20     86     12      0     33     99     99      0    0.0  0.000      0      0  0.000  0.000  0.000  0.000  0.000  0.000  0.000   2.99   0.00   0.00      0      0    231.2   0.11   0.00   0.33    0.40    0.26    0.12    0.00    0.00    0.00      0      0      0       0       0 20.00
 2013 148    44    15    7.0      2   0.26    110     12      0     42    122    122      0    0.0  0.000      0      0  0.000  0.000  0.000  0.000  0.000  0.000  0.000   3.10   0.00   0.00      0      0    235.1   0.14   0.00   0.34    0.43    0.31    0.19    0.00    0.00    0.00      0      0      0       0       1 19.86
 2013 149    45    16    7.0      2   0.32    143     12      0     55    156    156      0    0.0  0.000      0      0  0.000  0.000  0.009  0.000  0.000  0.000  0.000   3.06   0.00   0.00      0      0    222.5   0.17   0.00   0.36    0.50    0.38    0.28    0.01    0.00    0.00      0      0      0       0       1 18.85
 2013 150    46    17    8.0      2   0.39    184     12      0     66    196    196      0    0.0  0.000      0      0  0.000  0.000  0.000  0.000  0.000  0.000  0.000   3.05   0.00   0.00      0      0    211.4   0.21   0.00   0.38    0.57    0.43    0.35    0.01    0.00    0.00      0      0      0       0       1 18.75
 2013 151    47    18    8.0      2   0.47    232     12      0     80    244    244      0    0.0  0.000      0      0  0.000  0.000  0.000  0.000  0.000  0.000  0.000   3.05   0.00   0.00      0      0    201.4   0.25   0.00   0.40    0.67    0.49    0.44    0.03    0.00    0.00      0      0      0       0       1 19.15
 2013 152    48    19    9.0      2   0.56    289     12      0    104    302    302      0    0.0  0.000      0      0  0.000  0.000  0.000  0.000  0.000  0.000  0.000   3.78   0.00   0.00      0      0    192.4   0.30   0.00   0.42    0.80    0.62    0.59    0.05    0.00    0.00      0      0      0       0       2 19.55
 2013 153    49    20    9.0      2   0.65    354     12      0    134    366    366      0    0.0  0.000      0      0  0.000  0.000  0.000  0.000  0.000  0.000  0.000   3.73   0.00   0.00      0      0    184.4   0.35   0.00   0.44    0.98    0.75    0.76    0.10    0.00    0.00      0      0      0       0       2 19.15
 2013 154    50    21   10.0      2   0.76    426     12      0    154    438    438      0    0.0  0.000      0      0  0.000  0.000  0.000  0.000  0.000  0.000  0.000   3.69   0.00   0.00      0      0    177.5   0.41   0.00   0.46    1.11    0.83    0.86    0.14    0.00    0.00      0      0      0       0       3 18.58
 2013 155    51    22   10.0      3   0.87    509     13      0    188    522    522      0    0.0  0.000      0      0  0.000  0.000  0.000  0.000  0.000  0.000  0.000   3.61   0.00   0.00      0      0    170.7   0.47   0.00   0.48    1.32    0.93    1.01    0.24    0.00    0.00      0      0      0       0       4 19.19
 2013 156    52    23   11.0      3   1.00    605     14      0    235    619    619      0    0.0  0.000      0      0  0.000  0.000  0.000  0.000  0.000  0.000  0.000   3.53   0.00   0.00      0      0    165.5   0.54   0.00   0.50    1.58    0.98    1.16    0.46    0.00    0.00      0      0      0       0       5 19.49
 2013 157    53    24   11.0      3   1.13    703     18      0    261    721    721      0    0.0  0.000      0      0  0.000  0.000  0.000  0.000  0.000  0.000  0.000   3.43   0.00   0.00      0      0    161.0   0.61   0.00   0.52    1.65    1.00    1.18    0.65    0.00    0.00      0      0      0       0       6 17.90
 2013 158    54    25   12.0      3   1.30    829     26      0    299    855    855      0    0.0  0.000      0      0  0.000  0.000  0.000  0.000  0.000  0.000  0.000   3.13   0.00   0.00      0      0    156.1   0.70   0.00   0.54    2.01    1.03    1.21    0.86    0.00    0.00      0      0      0       0       7 18.05
 2013 159    55    26   12.0      3   1.46    960     39      0    346    998    998      0    0.0  0.000      0      0  0.000  0.000  0.000  0.000  0.000  0.000  0.000   2.77   0.00   0.00      0      0    152.0   0.79   0.00   0.56    1.99    1.09    1.26    1.14    0.06    0.00      0      0      0       0       9 17.95
 2013 160    56    27   13.0      3   1.62   1094     58      0    395   1152   1152      0    0.0  0.000      0      0  0.000  0.053  0.013  0.000  0.000  0.000  0.000   2.51   0.00   0.00      0      0    148.0   0.87   0.00   0.58    1.98    1.14    1.31    1.38    0.17    0.00      0      0      0       0      10 19.00
 2013 161    57    28   13.0      3   1.75   1214     81      0    420   1295   1295      0    0.0  0.000      0      0  0.000  0.014  0.060  0.000  0.000  0.000  0.000   2.36   0.00   0.00      0      0    144.1   0.94   0.00   0.60    1.97    1.17    1.34    1.48    0.25    0.00      0      0      0       0      12 18.50
 2013 162    58    29   14.0      3   1.86   1324    109      0    451   1433   1433      0    0.0  0.000      0      0  0.000  0.108  0.092  0.000  0.000  0.000  0.000   2.24   0.00   0.00      0      0    140.2   1.00   0.00   0.62    1.96    1.21    1.38    1.60    0.36    0.00      0      0      0       0      14 18.25
 2013 163    59    30   14.0      3   1.95   1430    142      0    507   1572   1572      0    0.0  0.000      0      0  0.000  0.223  0.113  0.000  0.000  0.000  0.000   3.18   0.00   0.00      0      0    136.3   1.05   0.00   0.64    3.72    1.22    1.39    1.63    0.41    0.00      0      0      0       0      17 18.60
 2013 164    60    31   14.0      3   2.13   1590    206      0    550   1796   1796      0    0.0  0.000      0      0  0.000  0.000  0.000  0.000  0.000  0.000  0.000   2.91   0.00   0.00      0      0    134.0   1.15   0.00   0.66    4.00    1.25    1.42    1.72    0.53    0.00      0      0      0       0      19 19.80
 2013 165    61    32   15.0      3   2.18   1664    242      0    608   1906   1906      0    0.0  0.000      0      0  0.300  0.534  0.000  0.000  0.000  0.000  0.000   2.79   0.00   0.00      0      0    131.0   1.17   0.00   0.68    3.98    1.34    1.51    1.87    0.77    0.00      0      0      0       0      22 19.25
 2013 166    62    33   15.0      3   2.21   1732    281      0    645   2013   2013      0    0.0  0.000      0      0  0.368  0.579  0.007  0.000  0.000  0.000  0.000   2.67   0.00   0.00      0      0    127.8   1.19   0.00   0.70    3.96    1.40    1.56    1.96    0.93    0.00      0      0      0       0      25 19.40
 2013 167    63    34   16.0      3   2.20   1781    315      0    674   2096   2096      0    0.0  0.000      0      0  0.566  0.711  0.021  0.000  0.000  0.000  0.000   2.59   0.00   0.00      0      0    123.7   1.19   0.00   0.72    3.94    1.45    1.61    2.03    1.05    0.00      0      0      0       0      28 20.45
 2013 168    64    35   16.0      3   2.19   1827    353      0    690   2180   2180      0    0.0  0.000      0      0  0.597  0.732  0.034  0.000  0.000  0.000  0.000   2.52   0.00   0.00      0      0    119.6   1.19   0.00   0.74    3.92    1.48    1.64    2.06    1.13    0.00      0      0      0       0      32 20.40
[...]
 2014 164    67    36   17.0      3   3.18   2510    894      0    413   3404   3406      0    0.0  0.000      2      0  0.000  0.000  0.000  0.000  0.000  0.000  0.000   2.77   0.00   0.00      0      2    126.6   1.60   0.00   0.77    3.18    2.22    1.79    0.49    0.17    0.00      0      0      0       0      24 18.95
 2014 165    68    37   18.0      3   3.31   2639   1056      0    427   3696   3702      0    0.0  0.000      6      0  0.000  0.000  0.000  0.000  0.000  0.000  0.000   2.72   0.00   0.00      0      6    125.4   1.60   0.00   0.79    3.25    2.30    1.83    0.50    0.20    0.00      0      0      0       0      26 19.00
 2014 166    69    38   18.0      3   3.44   2767   1264      0    444   4032   4047      0    0.0  0.000     15      0  0.000  0.000  0.000  0.000  0.000  0.000  0.000   2.68   0.00   0.00      0     15    124.2   1.60   0.00   0.81    3.34    2.38    1.88    0.52    0.23    0.01      0      0      0       0      28 19.80
 2014 167    70    39   19.0      3   3.55   2883   1479      0    461   4362   4392      0    0.0  0.000     30      0  0.000  0.000  0.000  0.000  0.000  0.000  0.000   2.64   0.00   0.01      0     30    123.2   1.60   0.00   0.83    3.41    2.46    1.91    0.55    0.27    0.02      0      0      0       0      30 17.85
 2014 168    71    40   19.0      3   3.64   2967   1652      0    474   4619   4662      0    0.0  0.000     43      0  0.000  0.000  0.000  0.000  0.000  0.000  0.000   2.59   0.00   0.01      0     43    122.5   1.60   0.00   0.85    3.46    2.50    1.92    0.57    0.30    0.03      0      0      0       0      32 17.85
 2014 169    72    41   19.0      3   3.72   3054   1840      0    488   4894   4960      0    0.0  0.000     66      0  0.000  0.000  0.000  0.000  0.000  0.000  0.000   2.56   0.00   0.01      0     66    121.8   1.60   0.00   0.86    3.45    2.54    1.93    0.60    0.34    0.06      0      0      0       0      35 17.60
 2014 170    73    42   20.0      3   3.81   3144   2037      0    504   5181   5287      0    0.0  0.000    106      0  0.000  0.000  0.000  0.000  0.000  0.000  0.000   2.53   0.00   0.02      0    106    121.1   1.60   0.00   0.88    3.43    2.54    1.93    0.63    0.39    0.10      0      0      0       0      37 16.85
 2014 171    74    43   20.0      3   3.89   3223   2215      0    518   5438   5588      0    0.0  0.000    150      0  0.000  0.000  0.000  0.000  0.000  0.000  0.000   2.49   0.00   0.03      0    150    120.5   1.60   0.00   0.90    3.42    2.54    1.93    0.67    0.44    0.15      0      0      0       0      40 17.60
 2014 172    75    44   21.0      3   3.95   3293   2375      0    531   5668   5864      0    0.0  0.000    196      0  0.000  0.000  0.000  0.000  0.000  0.000  0.000   2.44   0.00   0.03      0    196    120.0   1.60   0.00   0.92    3.41    2.53    1.92    0.69    0.48    0.20      0      0      0       0      42 19.40
 2014 173    76    45   21.0      3   4.03   3372   2534      0    546   5906   6180      0    0.0  0.000    275      0  0.000  0.000  0.000  0.000  0.000  0.000  0.000   2.41   0.00   0.04      0    275    119.5   1.60   0.00   0.94    3.72    2.52    1.91    0.71    0.50    0.23      0      0      0       0      45 20.01
 2014 174    77    46   21.0      3   4.09   3432   2652      0    556   6084   6417      0    0.0  0.000    333      0  0.000  0.000  0.000  0.000  0.000  0.000  0.000   2.36   0.00   0.05      0    333    119.0   1.60   0.00   0.96    3.95    2.51    1.91    0.71    0.51    0.26      0      0      0       0      48 19.05
 2014 175    78    47   21.0      3   4.17   3520   2757      0    573   6277   6765      0    0.0  0.000    488      0  0.000  0.000  0.000  0.000  0.000  0.000  0.000   2.36   0.00   0.07      0    488    118.4   1.60   0.00   0.98    4.00    2.50    1.90    0.73    0.53    0.30      0      0      0       0      50 18.95
 2014 176    79    48   21.0      3   4.23   3597   2840      0    587   6437   7067      0    0.0  0.000    630      0  0.000  0.000  0.000  0.000  0.000  0.000  0.000   2.31   0.00   0.09      0    630    117.7   1.60   0.00   1.00    4.00    2.62    1.89    0.73    0.54    0.32      0      0      0       0      53 18.15
 2014 177    80    49   21.0      4   4.05   3561   2971      0    599   6532   7366      0    0.0  0.000    834      0  0.000  0.000  0.000  0.000  0.000  0.000  0.000   2.31   0.00   0.11      0    834    113.7   1.60   0.00   1.00    4.00    2.72    1.89    0.73    0.55    0.34      0      0      0       0      56 18.65
 2014 178    81    50   21.0      4   4.03   3523   3076      0    609   6598   7647      0    0.0  0.000   1049      0  0.000  0.000  0.000  0.000  0.000  0.000  0.000   2.28   0.00   0.14      0   1049    114.4   1.60   0.00   1.00    4.00    2.82    1.89    0.74    0.55    0.35      0      0      0       0      56 18.20
 2014 179    82    51   21.0      4   4.01   3480   3172      0    622   6653   7957      0    0.0  0.000   1305      0  0.000  0.000  0.000  0.000  0.000  0.000  0.000   2.26   0.00   0.16      0   1305    115.2   1.60   0.00   1.00    4.00    2.93    1.89    0.74    0.56    0.37      0      0      0       0      56 18.95
 2014 180    83    52   21.0      4   3.99   3435   3247      0    633   6682   8235      0    0.0  0.000   1553      0  0.000  0.000  0.000  0.000  0.000  0.000  0.000   2.25   0.00   0.19      0   1553    116.2   1.60   0.00   1.00    4.00    3.03    1.90    0.74    0.56    0.38      0      0      0       0      56 19.05
 2014 181    84    53   21.0      4   3.97   3386   3296      0    640   6682   8430      0    0.0  0.000   1748      0  0.000  0.000  0.000  0.000  0.000  0.000  0.000   2.25   0.00   0.21      0   1748    117.3   1.60   0.00   1.00    4.00    3.10    1.90    0.74    0.57    0.39      0      0      0       0      56 16.90
 2014 182    85    54   21.0      4   3.95   3334   3341      0    648   6675   8628      0    0.0  0.000   1953      0  0.000  0.000  0.000  0.000  0.000  0.000  0.000   2.26   0.00   0.23      0   1953    118.6   1.60   0.00   1.00    4.00    3.18    1.90    0.74    0.57    0.40      0      0      0       0      56 17.80
 2014 183    86    55   21.0      4   3.93   3279   3396      0    659   6675   8913      0    0.0  0.000   2238      0  0.000  0.000  0.000  0.000  0.000  0.000  0.000   2.26   0.00   0.25      0   2238    120.0   1.60   0.00   1.00    4.00    3.26    1.95    0.74    0.57    0.41      0      0      0       0      56 18.50
 2014 184    87    56   21.0      4   3.91   3221   3442      0    670   6663   9169      0    0.0  0.000   2506      0  0.000  0.000  0.000  0.000  0.000  0.000  0.000   2.26   0.00   0.27      0   2506    121.5   1.60   0.00   1.00    4.00    3.34    1.99    0.74    0.58    0.42      0      0      0       0      56 18.80
 2014 185    88    57   21.0      4   3.89   3159   3486      0    680   6645   9420      0    0.0  0.000   2775      0  0.000  0.000  0.000  0.000  0.000  0.000  0.000   2.27   0.00   0.29      0   2775    123.2   1.60   0.00   1.00    4.00    3.41    2.04    0.74    0.58    0.43      0      0      0       0      56 19.40
 2014 186    89    58   21.0      4   3.87   3094   3540      0    694   6634   9761      0    0.0  0.000   3127      0  0.000  0.000  0.000  0.000  0.000  0.000  0.000   2.27   0.00   0.32      0   3127    125.1   1.60   0.00   1.00    4.00    3.51    2.10    0.75    0.58    0.45      0      0      0       0      56 20.04
 2014 187    90    59   21.0      5   3.81   3094   3540    146    748   6634   9908   2772    5.3  0.015   3274      6  0.000  0.000  0.000  0.000  0.000  0.000  0.000   2.23   4.47   0.33      0   3274    123.2   1.60   0.00   1.00    4.00    3.86    2.32    0.76    0.61    0.49      0      0      0       0      56 20.50
 2014 188    91    60   21.0      5   3.80   3094   3540    307    775   6634  10069   2772   11.1  0.031   3435      6  0.000  0.000  0.000  0.000  0.000  0.000  0.000   2.19   8.95   0.34      0   3435    122.9   1.60   0.00   1.00    4.00    4.00    2.47    0.77    0.62    0.52      0      0      0       0      56 19.85
 2014 189    92    61   21.0      5   3.79   3094   3540    488    787   6634  10249   2772   17.6  0.048   3615      6  0.000  0.000  0.000  0.000  0.000  0.000  0.000   2.14  13.49   0.35      0   3615    122.6   1.60   0.00   1.00    4.00    4.00    2.54    0.77    0.62    0.53      0      0      0       0      56 18.45
 2014 190    93    62   21.0      5   3.78   3094   3540    656    838   6634  10418   2772   23.7  0.063   3784      6  0.000  0.000  0.000  0.000  0.000  0.000  0.000   2.10  17.35   0.36      0   3784    122.2   1.60   0.00   1.00    4.00    4.00    2.83    0.78    0.64    0.57      0      0      0       0      56 19.42
 2014 191    94    63   21.0      5   3.77   3094   3540    837    864   6634  10598   2772   30.2  0.079   3964      6  0.000  0.000  0.000  0.000  0.000  0.000  0.000   2.05  21.11   0.37      0   3964    121.7   1.60   0.00   1.00    4.00    4.00    2.97    0.79    0.65    0.60      0      0      0       0      56 18.60
 2014 192    95    64   21.0      5   3.75   3094   3540   1017    866   6634  10778   2772   36.7  0.094   4144      6  0.000  0.000  0.000  0.000  0.000  0.000  0.000   2.00  24.54   0.38      0   4144    121.3   1.60   0.00   1.00    4.00    4.00    2.99    0.79    0.65    0.60      0      0      0       0      56 17.50
 2014 193    96    65   21.0      5   3.73   3094   3540   1197    900   6634  10958   2772   43.2  0.109   4324      6  0.000  0.000  0.000  0.000  0.000  0.000  0.000   1.96  27.68   0.39      0   4324    120.7   1.60   0.00   1.00    4.00    4.00    3.18    0.80    0.66    0.63      0      0      0       0      56 17.95
 2014 194    97    66   21.0      5   3.71   3094   3540   1369    957   6634  11130   2772   49.4  0.123   4496      6  0.000  0.000  0.000  0.000  0.000  0.000  0.000   1.91  30.45   0.40      0   4496    120.0   1.60   0.00   1.00    4.00    4.00    3.54    0.81    0.69    0.68      0      0      0       0      56 19.35
 2014 195    98    67   21.0      5   3.69   3094   3540   1549   1011   6634  11311   2772   55.9  0.137   4677      6  0.000  0.000  0.000  0.000  0.000  0.000  0.000   1.86  33.13   0.41      0   4677    119.3   1.60   0.00   1.00    4.00    4.00    3.87    0.83    0.71    0.73      0      0      0       0      56 18.65
 2014 196    99    68   21.0      5   3.66   3094   3540   1721   1054   6634  11482   2772   62.1  0.150   4848      6  0.000  0.000  0.000  0.000  0.000  0.000  0.000   1.82  35.49   0.42      0   4848    118.4   1.60   0.00   1.00    4.00    4.00    4.00    0.84    0.73    0.77      0      0      0       0      56 19.40
 2014 197   100    69   21.0      5   3.63   3094   3540   1866   1088   6634  11627   2772   67.3  0.160   4993      6  0.000  0.000  0.000  0.000  0.000  0.000  0.000   1.78  37.37   0.43      0   4993    117.4   1.60   0.00   1.00    4.00    4.00    4.00    0.85    0.74    0.80      0      0      0       0      56 20.48
 2014 198   101    70   21.0      5   3.60   3094   3540   2028   1121   6634  11789   2772   73.2  0.172   5155      6  0.000  0.000  0.000  0.000  0.000  0.000  0.000   1.74  39.34   0.44      0   5155    116.3   1.60   0.00   1.00    4.00    4.00    4.00    0.86    0.76    0.83      0      0      0       0      56 19.80
 2014 199   102    71   21.0      5   3.56   3094   3540   2183   1183   6634  11945   2772   78.8  0.183   5311      6  0.000  0.000  0.000  0.000  0.000  0.000  0.000   1.69  41.11   0.44      0   5311    115.0   1.60   0.00   1.00    4.00    4.00    4.00    0.88    0.79    0.89      0      0      0       0      56 20.06
 2014 200   103    72   21.0      5   3.52   3094   3540   2341   1224   6634  12102   2772   84.5  0.193   5468      6  0.000  0.000  0.000  0.000  0.000  0.000  0.000   1.65  42.81   0.45      0   5468    113.7   1.60   0.00   1.00    3.99    4.00    4.00    0.89    0.80    0.93      0      0      0       0      56 20.00
 2014 201   104    73   21.0      5   3.47   3094   3540   2517   1248   6634  12278   2772   90.8  0.205   5644      6  0.000  0.000  0.000  0.000  0.000  0.000  0.000   1.61  44.59   0.46      0   5644    112.2   1.60   0.00   1.00    3.99    4.00    4.00    0.90    0.81    0.95      0      0      0       0      56 19.20
 2014 202   105    74   21.0      5   3.42   3094   3540   2678   1298   6634  12439   2772   96.6  0.215   5805      6  0.000  0.000  0.000  0.000  0.000  0.000  0.000   1.56  46.13   0.47      0   5805    110.6   1.60   0.00   1.00    4.00    4.00    4.00    0.92    0.84    1.00      0      0      0       0      56 19.68
 2014 203   106    75   21.0      5   3.37   3094   3540   2827   1361   6634  12589   2772  102.0  0.225   5955      6  0.000  0.000  0.000  0.000  0.000  0.000  0.000   1.41  47.48   0.47      0   5955    108.9   1.60   0.00   1.00    4.00    4.00    4.00    0.94    0.87    1.05      0      0      0       0      63 20.30
 2014 204   107    76   21.0      5   3.31   3094   3540   2995   1417   6634  12756   2772  108.1  0.235   6122      6  0.000  0.184  0.000  0.000  0.000  0.000  0.000   1.38  48.92   0.48      0   6122    107.0   1.60   0.00   1.00    3.98    4.00    4.00    0.96    0.89    1.11      0      0      0       0      69 19.55
 2014 205   108    77   21.0      5   3.25   3094   3540   3145   1468   6634  12906   2772  113.5  0.244   6272      6  0.000  0.000  0.000  0.000  0.000  0.000  0.000   1.35  50.14   0.49      0   6272    104.9   1.60   0.00   1.00    3.97    4.00    4.00    0.98    0.92    1.16      0      0      0       0      77 20.18
 2014 206   109    78   21.0      5   3.18   3094   3540   3309   1526   6634  13071   2772  119.4  0.253   6437      6  0.000  0.000  0.000  0.000  0.000  0.000  0.000   1.33  51.41   0.49      0   6437    102.8   1.60   0.00   1.00    3.95    4.00    4.00    1.00    0.95    1.22      0      0      0       0      84 19.61
 2014 207   110    79   21.0      5   3.11   3094   3540   3469   1556   6634  13230   2772  125.2  0.262   6596      6  0.000  0.000  0.000  0.000  0.000  0.000  0.000   1.29  52.59   0.50      0   6596    100.4   1.60   0.00   1.00    3.94    4.00    4.00    1.01    0.96    1.25      0      0      0       0      92 19.88
 2014 208   111    80   21.0      5   3.03   3094   3540   3644   1576   6634  13405   2772  131.5  0.272   6771      6  0.000  0.000  0.000  0.000  0.000  0.000  0.000   1.26  53.81   0.51      0   6771     97.9   1.60   0.00   1.00    3.92    4.00    4.00    1.01    0.97    1.27      0      0      0       0      99 19.25
 2014 209   112    81   21.0      5   2.95   3094   3540   3796   1627   6634  13557   2772  136.9  0.280   6923      6  0.000  0.169  0.000  0.000  0.000  0.000  0.000   1.25  54.83   0.51      0   6923     95.2   1.60   0.00   1.00    3.90    4.00    4.00    1.03    1.00    1.32      0      0      0       0     107 19.96
 2014 210   113    82   21.0      5   2.86   3094   3540   3950   1677   6634  13711   2772  142.5  0.288   7077      6  0.000  0.000  0.000  0.000  0.000  0.000  0.000   1.22  55.81   0.52      0   7077     92.3   1.60   0.00   1.00    3.89    4.00    4.00    1.05    1.02    1.38      0      0      0       0     115 20.04
 2014 211   114    83   21.0      5   2.76   3094   3540   4124   1726   6634  13886   2772  148.8  0.297   7252      6  0.000  0.000  0.000  0.000  0.000  0.000  0.000   1.20  56.88   0.52      0   7252     89.4   1.60   0.00   1.00    3.88    4.00    4.00    1.07    1.05    1.43      0      0      0       0     124 19.25
 2014 212   115    84   21.0      5   2.66   3094   3540   4282   1762   6634  14043   2772  154.5  0.305   7409      6  0.000  0.000  0.000  0.000  0.000  0.000  0.000   1.17  57.79   0.53      0   7409     86.1   1.60   0.00   1.00    3.86    4.00    4.00    1.09    1.07    1.47      0      0      0       0     132 19.92
 2014 213   116    85   21.0      5   2.56   3094   3540   4449   1802   6634  14210   2772  160.5  0.313   7576      6  0.000  0.000  0.000  0.000  0.000  0.000  0.000   1.15  58.72   0.53      0   7576     82.7   1.60   0.00   1.00    3.84    4.00    4.00    1.10    1.09    1.51      0      0      0       0     141 19.34
 2014 214   117    86   21.0      5   2.45   3094   3540   4619   1827   6634  14380   2772  166.6  0.321   7746      6  0.000  0.000  0.000  0.000  0.000  0.000  0.000   1.12  59.63   0.54      0   7746     79.2   1.60   0.00   1.00    3.83    4.00    4.00    1.11    1.11    1.54      0      0      0       0     150 19.45
 2014 215   118    87   21.0      5   2.34   3094   3540   4799   1849   6634  14560   2772  173.1  0.330   7926      6  0.000  0.000  0.000  0.000  0.000  0.000  0.000   1.10  60.55   0.54      0   7926     75.7   1.60   0.00   1.00    3.81    4.00    4.00    1.12    1.12    1.57      0      0      0       0     159 18.20
 2014 216   119    88   21.0      5   2.22   3094   3540   4972   1883   6634  14734   2772  179.4  0.337   8100      6  0.000  0.000  0.000  0.000  0.000  0.000  0.000   1.09  61.39   0.55      0   8100     71.7   1.60   0.00   1.00    3.79    4.00    4.00    1.13    1.14    1.61      0      0      0       0     169 19.23
 2014 217   120    89   21.0      5   2.11   3094   3483   5153   1874   6577  14857   2772  185.9  0.347   8280      6  0.000  0.000  0.000  0.000  0.000  0.000  0.000   1.05  62.23   0.56      0   8280     68.2   1.60   0.00   1.00    3.79    4.00    4.00    1.13    1.14    1.61      0      0      0       0     169 16.75
 2014 218   121    90   21.0      5   1.98   3094   3537   5329   1892   6631  15088   2772  192.3  0.353   8457      6  0.000  0.000  0.000  0.000  0.000  0.000  0.000   1.03  63.02   0.56      0   8457     63.9   1.60   0.00   1.00    3.78    4.00    4.00    1.14    1.15    1.63      0      0      0       0     178 19.15
 2014 219   122    91   21.0      5   1.83   3094   3540   5481   1908   6634  15243   2772  197.8  0.360   8609      6  0.000  0.000  0.000  0.000  0.000  0.000  0.000   1.02  63.67   0.56      0   8609     59.1   1.60   0.00   1.00    3.76    4.00    4.00    1.15    1.16    1.66      0      0      0       0     187 20.20
 2014 220   123    92   21.0      5   1.68   3094   3540   5646   1925   6634  15407   2772  203.7  0.366   8773      6  0.000  0.000  0.000  0.000  0.000  0.000  0.000   1.00  64.35   0.57      0   8773     54.3   1.60   0.00   1.00    3.74    4.00    4.00    1.15    1.17    1.68      0      0      0       0     197 19.70
 2014 221   124    93   21.0      5   1.68   3094   3540   5646   1925   6634  15407   2772  203.7  0.366   8773      6  0.000  0.000  0.000  0.000  0.000  0.000  0.000   1.00  64.35   0.57      0   8773     54.3   1.60   0.00   1.00    3.72    4.00    4.00    1.16    1.18    1.71      0      0      0       0     197 20.04
 2014 222   125    94   21.0      5   1.68   3094   3540   5646   1925   6634  15407   2772  203.7  0.366   8773      6  0.000  0.000  0.000  0.000  0.000  0.000  0.000   1.00  64.35   0.57      0   8773     54.3   1.60   0.00   1.00    3.71    4.00    4.00    1.17    1.19    1.73      0      0      0       0     197 20.12
 2014 223   126    95   21.0      5   1.68   3094   3540   5646   1925   6634  15407   2772  203.7  0.366   8773      6  0.000  0.000  0.000  0.000  0.000  0.000  0.000   1.00  64.35   0.57      0   8773     54.3   1.60   0.00   1.00    3.69    4.00    4.00    1.17    1.20    1.75      0      0      0       0     197  0.00
 2014 224   127    96   21.0      5   1.68   3094   3540   5646   1925   6634  15407   2772  203.7  0.366   8773      6  0.000  0.000  0.000  0.000  0.000  0.000  0.000   1.00  64.35   0.57      0   8773     54.3   1.60   0.00   1.00    3.68    4.00    4.00    1.18    1.21    1.78      0      0      0       0     197 20.28
